@<TRIPOS>MOLECULE
molecule
   40    41     1     0     0
SMALL
bcc


@<TRIPOS>ATOM
      1 CAA          0.0000     0.0000     0.0000 c3         1 M00      -0.094100
      2 CAI          1.5300     0.0000     0.0000 c3         1 M00      -0.094400
      3 CAU          2.0400     0.0000     1.4420 c3         1 M00       0.122700
      4 CAJ          3.5640    -0.1260     1.4440 c3         1 M00       0.120400
      5 OAD          4.1280     0.9130     0.6410 oh         1 M00      -0.617800
      6 NAN          1.6510     1.2510     2.0980 ns         1 M00      -0.569900
      7 CAP          1.5250     1.2970     3.4390 c          1 M00       0.654100
      8 OAB          1.7310     0.3040     4.1030 o          1 M00      -0.630100
      9 CAK          1.1250     2.5850     4.1130 c3         1 M00      -0.141400
     10 CAL          1.0540     2.3670     5.6260 c3         1 M00      -0.102700
     11 CAQ          0.6550     3.6540     6.3000 cc         1 M00       0.497900
     12 NAM          0.4410     4.6980     5.5590 nd         1 M00      -0.662100
     13 CAS          0.0780     5.8900     6.0950 ca         1 M00       0.198400
     14 CAG         -0.1510     7.0130     5.2970 ca         1 M00      -0.125000
     15 CAE         -0.5170     8.2030     5.8850 ca         1 M00      -0.092000
     16 CAF         -0.6620     8.3030     7.2630 ca         1 M00      -0.155000
     17 CAH         -0.4410     7.2090     8.0700 ca         1 M00      -0.050000
     18 CAT         -0.0700     5.9950     7.4960 ca         1 M00      -0.207600
     19 CAR          0.1810     4.7940     8.3070 c          1 M00       0.708100
     20 OAC          0.0710     4.8160     9.5190 o          1 M00      -0.621500
     21 NAO          0.5320     3.6620     7.6540 ns         1 M00      -0.471400
     22 H1          -0.3610    -0.4160    -0.9330 hc         1 M00       0.035700
     23 H2          -0.3610    -0.6000     0.8270 hc         1 M00       0.035700
     24 H3          -0.3610     1.0160     0.1060 hc         1 M00       0.035700
     25 H4           1.8910     0.8840    -0.5110 hc         1 M00       0.056700
     26 H5           1.8910    -0.8850    -0.5110 hc         1 M00       0.056700
     27 H6           1.6080    -0.8370     1.9770 h1         1 M00       0.085700
     28 H7           3.9330    -0.0380     2.4590 h1         1 M00       0.034200
     29 H8           3.8480    -1.0900     1.0390 h1         1 M00       0.034200
     30 H9           5.0670     0.8280     0.6310 ho         1 M00       0.404000
     31 H10          1.5070     2.0780     1.5530 hn         1 M00       0.323500
     32 H11          1.8590     3.3510     3.8920 hc         1 M00       0.080200
     33 H12          0.1550     2.8980     3.7470 hc         1 M00       0.080200
     34 H13          2.0240     2.0540     5.9920 hc         1 M00       0.079700
     35 H14          0.3200     1.6010     5.8460 hc         1 M00       0.079700
     36 H15         -0.0410     6.9480     4.2210 ha         1 M00       0.147000
     37 H16         -0.6940     9.0730     5.2640 ha         1 M00       0.134000
     38 H17         -0.9500     9.2480     7.7060 ha         1 M00       0.136000
     39 H18         -0.5550     7.2920     9.1440 ha         1 M00       0.154000
     40 H19          0.7020     2.8230     8.1730 hn         1 M00       0.340500
@<TRIPOS>BOND
     1    16    17 ar
     2    16    15 ar
     3    17    18 ar
     4    15    14 ar
     5    18    19 1
     6    18    13 ar
     7    20    19 2
     8    14    13 ar
     9    19    21 1
    10    13    12 1
    11    21    11 1
    12    12    11 2
    13    11    10 1
    14     9    10 1
    15     9     7 1
    16     5     4 1
    17     6     7 1
    18     6     3 1
    19     7     8 2
    20     4     3 1
    21     1     2 1
    22     3     2 1
    23     1    22 1
    24     1    23 1
    25     1    24 1
    26     2    25 1
    27     2    26 1
    28     3    27 1
    29     4    28 1
    30     4    29 1
    31     5    30 1
    32     6    31 1
    33     9    32 1
    34     9    33 1
    35    10    34 1
    36    10    35 1
    37    14    36 1
    38    15    37 1
    39    16    38 1
    40    17    39 1
    41    21    40 1
@<TRIPOS>SUBSTRUCTURE
     1 M00         1 TEMP              0 ****  ****    0 ROOT
