@<TRIPOS>MOLECULE
molecule
   34    36     1     0     0
SMALL
bcc


@<TRIPOS>ATOM
      1 N1           0.0000     0.0000     0.0000 nb         1 M01      -0.793000
      2 C2           1.3380     0.0000     0.0000 ca         1 M01       0.695900
      3 N3           2.1700     0.0000     1.0440 nb         1 M01      -0.710000
      4 C4           1.5120     0.0600     2.2070 ca         1 M01       0.456800
      5 C5           0.1420     0.0830     2.3520 ca         1 M01      -0.208200
      6 C7          -0.6250     0.0500     1.1900 ca         1 M01       0.774200
      7 C9          -5.0430    -2.9100     0.7650 c3         1 M01       0.105800
      8 N7          -0.1940     0.1430     3.7140 nc         1 M01      -0.588100
      9 C8           0.9790     0.1440     4.3350 cd         1 M01       0.424700
     10 N9           2.0150     0.0960     3.4720 na         1 M01      -0.347000
     11 C10         -4.4760    -1.5210     0.9320 c3         1 M01      -0.103700
     12 C15         -3.5940    -1.1540    -0.2640 c3         1 M01      -0.103900
     13 C14         -2.8550     0.1450    -0.0300 c3         1 M01       0.232800
     14 C12         -2.8740    -0.1800     2.3600 c3         1 M01       0.232800
     15 N10         -5.8300    -3.3440     1.9510 nz         1 M01      -0.816600
     16 C11         -3.6540    -1.4680     2.2240 c3         1 M01      -0.103900
     17 N6          -2.0340     0.0630     1.1790 nh         1 M01      -0.813300
     18 H2           1.8080    -0.0390    -0.9750 h5         1 M01       0.060100
     19 H9           2.9850     0.0870     3.7190 hn         1 M01       0.327700
     20 H9C1        -4.2280    -3.6070     0.6110 hx         1 M01       0.109200
     21 H9C2        -5.6860    -2.9240    -0.1070 hx         1 M01       0.109200
     22 H10         -5.2890    -0.8080     1.0030 hc         1 M01       0.070700
     23 H101        -6.3620    -2.5710     2.3000 hn         1 M01       0.456467
     24 H102        -6.4510    -4.0840     1.6880 hn         1 M01       0.456467
     25 H8           1.0920     0.1800     5.4120 h5         1 M01       0.080800
     26 H111        -4.3250    -1.5600     3.0690 hc         1 M01       0.052200
     27 H112        -2.9590    -2.2990     2.2300 hc         1 M01       0.052200
     28 H151        -2.8730    -1.9460    -0.4270 hc         1 M01       0.052200
     29 H152        -4.2190    -1.0510    -1.1440 hc         1 M01       0.052200
     30 H121        -2.2410    -0.2410     3.2370 h1         1 M01       0.081950
     31 H122        -3.5680     0.6430     2.4740 h1         1 M01       0.081950
     32 H141        -2.2150     0.3480    -0.8810 h1         1 M01       0.081950
     33 H142        -3.5730     0.9480     0.0820 h1         1 M01       0.081950
     34 H103        -5.2070    -3.6510     2.6720 hn         1 M01       0.456467
@<TRIPOS>BOND
     1     1     2 ar
     2     1     6 ar
     3     2     3 ar
     4     3     4 ar
     5     4     5 ar
     6     4    10 1
     7     5     8 1
     8     5     6 ar
     9     7    11 1
    10     7    15 1
    11     8     9 2
    12     9    10 1
    13    11    16 1
    14    11    12 1
    15    16    14 1
    16    14    17 1
    17    13    12 1
    18    13    17 1
    19    17     6 1
    20     2    18 1
    21    10    19 1
    22     7    20 1
    23     7    21 1
    24    11    22 1
    25    15    23 1
    26    15    24 1
    27     9    25 1
    28    16    26 1
    29    16    27 1
    30    12    28 1
    31    12    29 1
    32    14    30 1
    33    14    31 1
    34    13    32 1
    35    13    33 1
    36    34    15 1
@<TRIPOS>SUBSTRUCTURE
     1 M01         1 TEMP              0 ****  ****    0 ROOT
