@<TRIPOS>MOLECULE
molecule
   31    33     1     0     0
SMALL
bcc


@<TRIPOS>ATOM
      1 CAK          0.0000     0.0000     0.0000 c3         1 M02      -0.130900
      2 CAM          1.5260     0.0000     0.0000 c3         1 M02       0.114500
      3 CAP         -0.5440    -1.1100     0.8790 c3         1 M02       0.239800
      4 CAO          2.0560     0.0000     1.4360 c3         1 M02      -0.130900
      5 C7           1.3910    -1.0490     2.3040 c3         1 M02       0.239800
      6 N6          -0.0710    -0.9390     2.2570 nh         1 M02      -0.817300
      7 C6          -0.9190    -0.4610     3.2930 ca         1 M02       0.762200
      8 C5          -0.5990    -0.4460     4.6580 ca         1 M02      -0.187200
      9 N7           0.5290    -0.8470     5.3770 nc         1 M02      -0.583100
     10 C4          -1.5450     0.0600     5.5180 ca         1 M02       0.445800
     11 N9          -1.0090    -0.0290     6.7660 na         1 M02      -0.343000
     12 C8           0.2310    -0.5550     6.6480 cd         1 M02       0.428700
     13 N10          2.0480     1.2330    -0.6790 nz         1 M02      -0.823600
     14 N3          -2.7530     0.5420     5.1770 nb         1 M02      -0.695000
     15 C2          -2.9600     0.4610     3.8610 ca         1 M02       0.687900
     16 N1          -2.1320     0.0120     2.9110 nb         1 M02      -0.797000
     17 HAM          1.8860    -0.8820    -0.5160 hx         1 M02       0.113700
     18 HAO1         3.1220    -0.1910     1.4140 hc         1 M02       0.069200
     19 HAO2         1.8790     0.9760     1.8720 hc         1 M02       0.069200
     20 HAK1        -0.3540     0.9530     0.3730 hc         1 M02       0.069200
     21 HAK2        -0.3540    -0.1450    -1.0130 hc         1 M02       0.069200
     22 H101         1.7290     1.2520    -1.6270 hn         1 M02       0.452800
     23 H102         3.0490     1.2240    -0.6640 hn         1 M02       0.452800
     24 H7C1         1.7210    -0.9210     3.3270 h1         1 M02       0.089700
     25 H7C2         1.6810    -2.0320     1.9530 h1         1 M02       0.089700
     26 HAP1        -1.6270    -1.0770     0.8670 h1         1 M02       0.089700
     27 HAP2        -0.2040    -2.0660     0.5000 h1         1 M02       0.089700
     28 H2          -3.9180     0.8280     3.5130 h5         1 M02       0.061100
     29 H9          -1.4460     0.2640     7.6170 hn         1 M02       0.331700
     30 H8           0.9020    -0.7190     7.4820 h5         1 M02       0.086800
     31 H103         1.7280     2.0450    -0.1890 hn         1 M02       0.452800
@<TRIPOS>BOND
     1     2     4 1
     2     2     1 1
     3     2    13 1
     4     4     5 1
     5     1     3 1
     6     3     6 1
     7     6     7 1
     8     6     5 1
     9     7    16 ar
    10     7     8 ar
    11    16    15 ar
    12    15    14 ar
    13    14    10 ar
    14    10     8 ar
    15    10    11 1
    16     8     9 1
    17     9    12 2
    18    12    11 1
    19     2    17 1
    20     4    18 1
    21     4    19 1
    22     1    20 1
    23     1    21 1
    24    13    22 1
    25    13    23 1
    26     5    24 1
    27     5    25 1
    28     3    26 1
    29     3    27 1
    30    15    28 1
    31    11    29 1
    32    12    30 1
    33    31    13 1
@<TRIPOS>SUBSTRUCTURE
     1 M02         1 TEMP              0 ****  ****    0 ROOT
