@<TRIPOS>MOLECULE
molecule
   45    48     1     0     0
SMALL
bcc


@<TRIPOS>ATOM
      1 N1           0.0000     0.0000     0.0000 nh         1 M03      -0.811300
      2 C2           1.4630     0.0000     0.0000 c3         1 M03       0.233300
      3 C3           1.9890     0.0000     1.4150 c3         1 M03      -0.098400
      4 C4           1.5180     1.2210     2.2090 c3         1 M03      -0.030700
      5 C5           1.9810     1.0260     3.6600 c3         1 M03       0.110800
      6 N6           3.4470     1.2380     3.8300 nz         1 M03      -0.812600
      7 C7          -0.0200     1.2000     2.1580 c3         1 M03      -0.098400
      8 C8          -0.5460     1.1620     0.7300 c3         1 M03       0.233300
      9 C9           2.0670     2.5380     1.6090 ca         1 M03      -0.146300
     10 C10          1.4880     3.7510     1.9780 ca         1 M03      -0.128000
     11 C11          1.9600     4.9440     1.4630 ca         1 M03      -0.108500
     12 C12          3.0180     4.9520     0.5660 ca         1 M03       0.044400
     13 Cl1          3.5560     6.4510    -0.1280 cl         1 M03      -0.053400
     14 C14          3.6200     3.7560     0.2050 ca         1 M03      -0.108500
     15 C15          3.1590     2.5580     0.7320 ca         1 M03      -0.128000
     16 C16         -0.7380    -1.0780    -0.4750 ca         1 M03       0.752200
     17 N17         -2.0440    -1.0710    -0.1610 nb         1 M03      -0.802000
     18 C18         -2.7920    -2.0970    -0.5830 ca         1 M03       0.689900
     19 N19         -2.4170    -3.1670    -1.2840 nb         1 M03      -0.721000
     20 C20         -1.1250    -3.1420    -1.6120 ca         1 M03       0.462800
     21 N21         -0.4720    -4.0810    -2.3670 na         1 M03      -0.246100
     22 C22          0.8210    -3.7160    -2.5050 cc         1 M03      -0.103100
     23 C23          1.0160    -2.5290    -1.8330 cd         1 M03      -0.202200
     24 C24         -0.2190    -2.1370    -1.2780 ca         1 M03      -0.350400
     25 H2C1         1.8190    -0.8850    -0.5130 h1         1 M03       0.077450
     26 HA2          1.8190     0.8850    -0.5130 h1         1 M03       0.077450
     27 H8C1        -0.2530     2.0710     0.2190 h1         1 M03       0.077450
     28 H8C2        -1.6270     1.0910     0.7510 h1         1 M03       0.077450
     29 HA1          3.0720    -0.0010     1.3850 hc         1 M03       0.053450
     30 HB2          1.6460    -0.8970     1.9160 hc         1 M03       0.053450
     31 HB1          1.4510     1.7270     4.2930 hx         1 M03       0.107200
     32 HC2          1.7350     0.0180     3.9720 hx         1 M03       0.107200
     33 H7C1        -0.3760     0.3240     2.6860 hc         1 M03       0.053450
     34 H7C2        -0.3990     2.0900     2.6470 hc         1 M03       0.053450
     35 HC1          3.7240     0.9370     4.7430 hn         1 M03       0.456467
     36 HD2          3.6580     2.2100     3.7210 hn         1 M03       0.456467
     37 H10          0.6610     3.7590     2.6780 ha         1 M03       0.140000
     38 H15          3.6340     1.6280     0.4460 ha         1 M03       0.140000
     39 H11          1.4990     5.8790     1.7590 ha         1 M03       0.165500
     40 H14          4.4560     3.7580    -0.4840 ha         1 M03       0.165500
     41 H18         -3.8400    -2.0570    -0.3110 h5         1 M03       0.054100
     42 H21         -0.8870    -4.9050    -2.7550 hn         1 M03       0.321700
     43 H22          1.5780    -4.2640    -3.0530 h4         1 M03       0.182000
     44 H23          1.9490    -1.9840    -1.7600 ha         1 M03       0.144000
     45 H63          3.9420     0.7160     3.1350 hn         1 M03       0.456467
@<TRIPOS>BOND
     1     1     2 1
     2     1     8 1
     3     1    16 1
     4     2     3 1
     5     3     4 1
     6     4     5 1
     7     4     7 1
     8     4     9 1
     9     5     6 1
    10     7     8 1
    11     9    10 ar
    12     9    15 ar
    13    10    11 ar
    14    11    12 ar
    15    12    13 1
    16    12    14 ar
    17    14    15 ar
    18    16    17 ar
    19    16    24 ar
    20    17    18 ar
    21    18    19 ar
    22    19    20 ar
    23    20    21 1
    24    20    24 ar
    25    21    22 1
    26    22    23 2
    27    23    24 1
    28     2    25 1
    29     2    26 1
    30     8    27 1
    31     8    28 1
    32     3    29 1
    33     3    30 1
    34     5    31 1
    35     5    32 1
    36     7    33 1
    37     7    34 1
    38     6    35 1
    39     6    36 1
    40    10    37 1
    41    15    38 1
    42    11    39 1
    43    14    40 1
    44    18    41 1
    45    21    42 1
    46    22    43 1
    47    23    44 1
    48    45     6 1
@<TRIPOS>SUBSTRUCTURE
     1 M03         1 TEMP              0 ****  ****    0 ROOT
