@<TRIPOS>MOLECULE
M03
   45    48     1     0     0
SMALL
bcc


@<TRIPOS>ATOM
      1 N1           0.0000     0.0000     0.0000 nh         1 M03      -0.452300
      2 C2           1.4630     0.0000     0.0000 c3         1 M03       0.152300
      3 C3           1.9890     0.0000     1.4150 c3         1 M03      -0.045400
      4 C4           1.5180     1.2210     2.2090 c3         1 M03       0.000300
      5 C5           1.9810     1.0260     3.6600 c3         1 M03      -0.036200
      6 N6           3.4470     1.2380     3.8300 nz         1 M03       0.069400
      7 C7          -0.0200     1.2000     2.1580 c3         1 M03      -0.045400
      8 C8          -0.5460     1.1620     0.7300 c3         1 M03       0.152300
      9 C9           2.0670     2.5380     1.6090 ca         1 M03      -0.168300
     10 C10          1.4880     3.7510     1.9780 ca         1 M03      -0.101000
     11 C11          1.9600     4.9440     1.4630 ca         1 M03      -0.079000
     12 C12          3.0180     4.9520     0.5660 ca         1 M03      -0.029600
     13 Cl1          3.5560     6.4510    -0.1280 cl         1 M03       0.045600
     14 C14          3.6200     3.7560     0.2050 ca         1 M03      -0.079000
     15 C15          3.1590     2.5580     0.7320 ca         1 M03      -0.101000
     16 C16         -0.7380    -1.0780    -0.4750 ca         1 M03       0.608200
     17 N17         -2.0440    -1.0710    -0.1610 nb         1 M03      -0.737000
     18 C18         -2.7920    -2.0970    -0.5830 ca         1 M03       0.674900
     19 N19         -2.4170    -3.1670    -1.2840 nb         1 M03      -0.644000
     20 C20         -1.1250    -3.1420    -1.6120 ca         1 M03       0.239800
     21 N21         -0.4720    -4.0810    -2.3670 na         1 M03       0.317900
     22 C22          0.8210    -3.7160    -2.5050 cc         1 M03      -0.280100
     23 C23          1.0160    -2.5290    -1.8330 cd         1 M03      -0.167200
     24 C24         -0.2190    -2.1370    -1.2780 ca         1 M03      -0.346400
     25 H2C1         1.8190    -0.8850    -0.5130 h1         1 M03       0.051700
     26 HA2          1.8190     0.8850    -0.5130 h1         1 M03       0.051700
     27 H8C1        -0.2530     2.0710     0.2190 h1         1 M03       0.051700
     28 H8C2        -1.6270     1.0910     0.7510 h1         1 M03       0.051700
     29 HA1          3.0720    -0.0010     1.3850 hc         1 M03       0.027200
     30 HB2          1.6460    -0.8970     1.9160 hc         1 M03       0.027200
     31 HB1          1.4510     1.7270     4.2930 hx         1 M03       0.082200
     32 HC2          1.7350     0.0180     3.9720 hx         1 M03       0.082200
     33 H7C1        -0.3760     0.3240     2.6860 hc         1 M03       0.027200
     34 H7C2        -0.3990     2.0900     2.6470 hc         1 M03       0.027200
     35 HC1          3.7240     0.9370     4.7430 hn         1 M03       0.226467
     36 HD2          3.6580     2.2100     3.7210 hn         1 M03       0.226467
     37 H10          0.6610     3.7590     2.6780 ha         1 M03       0.117000
     38 H15          3.6340     1.6280     0.4460 ha         1 M03       0.117000
     39 H11          1.4990     5.8790     1.7590 ha         1 M03       0.131500
     40 H14          4.4560     3.7580    -0.4840 ha         1 M03       0.131500
     41 H18         -3.8400    -2.0570    -0.3110 h5         1 M03      -0.011900
     42 H21         -0.8870    -4.9050    -2.7550 hn         1 M03       0.130700
     43 H22          1.5780    -4.2640    -3.0530 h4         1 M03       0.152000
     44 H23          1.9490    -1.9840    -1.7600 ha         1 M03       0.126000
     45 H63          3.9420     0.7160     3.1350 hn         1 M03       0.226467
@<TRIPOS>BOND
     1     1     2 1   
     2     1     8 1   
     3     1    16 1   
     4     2     3 1   
     5     2    25 1   
     6     2    26 1   
     7     3     4 1   
     8     3    29 1   
     9     3    30 1   
    10     4     5 1   
    11     4     7 1   
    12     4     9 1   
    13     5     6 1   
    14     5    31 1   
    15     5    32 1   
    16     6    35 1   
    17     6    36 1   
    18     6    45 1   
    19     7     8 1   
    20     7    33 1   
    21     7    34 1   
    22     8    27 1   
    23     8    28 1   
    24     9    10 ar  
    25     9    15 ar  
    26    10    11 ar  
    27    10    37 1   
    28    11    12 ar  
    29    11    39 1   
    30    12    13 1   
    31    12    14 ar  
    32    14    15 ar  
    33    14    40 1   
    34    15    38 1   
    35    16    17 ar  
    36    16    24 ar  
    37    17    18 ar  
    38    18    19 ar  
    39    18    41 1   
    40    19    20 ar  
    41    20    21 1   
    42    20    24 ar  
    43    21    22 1   
    44    21    42 1   
    45    22    23 2   
    46    22    43 1   
    47    23    24 1   
    48    23    44 1   
@<TRIPOS>SUBSTRUCTURE
     1 M03         1 TEMP              0 ****  ****    0 ROOT
