@<TRIPOS>MOLECULE
M04
   48    51     1     0     0
SMALL
bcc


@<TRIPOS>ATOM
      1 N1           0.0000     0.0000     0.0000 nh         1 M04      -0.475300
      2 C2           1.4730     0.0000     0.0000 c3         1 M04       0.154800
      3 C3           2.0420     0.0000     1.4130 c3         1 M04      -0.030900
      4 C5           1.9250    -2.5220     1.6100 c3         1 M04      -0.060200
      5 N6           3.4000    -2.7170     1.6090 nz         1 M04       0.060400
      6 C7          -0.0050    -1.0860     2.2220 c3         1 M04      -0.030900
      7 C8          -0.5770    -1.0860     0.8100 c3         1 M04       0.154800
      8 C9           2.0940     0.1530     4.4000 ca         1 M04      -0.127300
      9 C10          3.2290     0.9460     4.3310 ca         1 M04      -0.081500
     10 C11          3.2930     2.1390     5.0210 ca         1 M04      -0.084000
     11 C12          2.2240     2.5510     5.7930 ca         1 M04      -0.026600
     12 Cl1          2.3290     4.0270     6.7010 cl         1 M04       0.021600
     13 C14          1.0960     1.7560     5.8830 ca         1 M04      -0.084000
     14 C15          1.0340     0.5640     5.1920 ca         1 M04      -0.081500
     15 C16         -0.6880     0.2470    -1.2380 ca         1 M04       0.579200
     16 N17         -1.7670    -0.5140    -1.4970 nb         1 M04      -0.706000
     17 C13          2.0470    -1.1720     3.6900 c3         1 M04       0.051900
     18 C18         -2.4290    -0.2980    -2.6390 ca         1 M04       0.658900
     19 N19         -2.1630     0.5870    -3.6010 nb         1 M04      -0.617000
     20 C20         -1.0850     1.3280    -3.3100 ca         1 M04       0.240800
     21 N21         -0.5540     2.3080    -4.0970 na         1 M04       0.304900
     22 C22          0.5250     2.8520    -3.4820 cc         1 M04      -0.264100
     23 C23          0.7110     2.2130    -2.2820 cd         1 M04      -0.162200
     24 C24         -0.3210     1.2330    -2.1620 ca         1 M04      -0.327400
     25 C4           1.5260    -1.1760     2.2450 c3         1 M04      -0.070000
     26 H2C1         1.8240    -0.8830    -0.5200 h1         1 M04       0.025450
     27 H2C2         1.8240     0.8830    -0.5190 h1         1 M04       0.025450
     28 H8C1        -1.6510    -0.9550     0.8640 h1         1 M04       0.025450
     29 H8C2        -0.3530    -2.0360     0.3380 h1         1 M04       0.025450
     30 H3C1         1.7620     0.9250     1.9020 hc         1 M04       0.039950
     31 H3C2         3.1220    -0.0600     1.3540 hc         1 M04       0.039950
     32 H5C1         1.4630    -3.3250     2.1710 hx         1 M04       0.091200
     33 H5C2         1.5640    -2.5530     0.5890 hx         1 M04       0.091200
     34 H6N1         3.6710    -3.2080     0.7800 hn         1 M04       0.228133
     35 H6N2         3.8550    -1.8260     1.6320 hn         1 M04       0.228133
     36 H7C1        -0.4100    -1.9340     2.7610 hc         1 M04       0.039950
     37 H7C2        -0.3070    -0.1720     2.7190 hc         1 M04       0.039950
     38 H10          4.0680     0.6320     3.7220 ha         1 M04       0.101000
     39 H15          0.1450    -0.0510     5.2610 ha         1 M04       0.101000
     40 H131         1.4200    -1.8380     4.2700 hc         1 M04       0.004700
     41 H132         3.0510    -1.5800     3.6820 hc         1 M04       0.004700
     42 H11          4.1840     2.7520     4.9610 ha         1 M04       0.126000
     43 H14          0.2590     2.0720     6.4930 ha         1 M04       0.126000
     44 H18         -3.2910    -0.9320    -2.8090 h5         1 M04      -0.007900
     45 H21         -0.9110     2.5890    -4.9880 hn         1 M04       0.132700
     46 H22          1.1360     3.6570    -3.8720 h4         1 M04       0.154000
     47 H23          1.4900     2.4180    -1.5580 ha         1 M04       0.130000
     48 H63          3.6650    -3.2630     2.4050 hn         1 M04       0.228133
@<TRIPOS>BOND
     1     1     2 1   
     2     1     7 1   
     3     1    15 1   
     4     2     3 1   
     5     2    26 1   
     6     2    27 1   
     7     3    25 1   
     8     3    30 1   
     9     3    31 1   
    10     4     5 1   
    11     4    25 1   
    12     4    32 1   
    13     4    33 1   
    14     5    34 1   
    15     5    35 1   
    16     5    48 1   
    17     6     7 1   
    18     6    25 1   
    19     6    36 1   
    20     6    37 1   
    21     7    28 1   
    22     7    29 1   
    23     8     9 ar  
    24     8    14 ar  
    25     8    17 1   
    26     9    10 ar  
    27     9    38 1   
    28    10    11 ar  
    29    10    42 1   
    30    11    12 1   
    31    11    13 ar  
    32    13    14 ar  
    33    13    43 1   
    34    14    39 1   
    35    15    16 ar  
    36    15    24 ar  
    37    16    18 ar  
    38    17    25 1   
    39    17    40 1   
    40    17    41 1   
    41    18    19 ar  
    42    18    44 1   
    43    19    20 ar  
    44    20    21 1   
    45    20    24 ar  
    46    21    22 1   
    47    21    45 1   
    48    22    23 2   
    49    22    46 1   
    50    23    24 1   
    51    23    47 1   
@<TRIPOS>SUBSTRUCTURE
     1 M04         1 TEMP              0 ****  ****    0 ROOT
