@<TRIPOS>MOLECULE
molecule
   48    51     1     0     0
SMALL
bcc


@<TRIPOS>ATOM
      1 N1           0.0000     0.0000     0.0000 nh         1 M04      -0.756300
      2 C2           1.4730     0.0000     0.0000 c3         1 M04       0.200300
      3 C3           2.0420     0.0000     1.4130 c3         1 M04      -0.082400
      4 C5           1.9250    -2.5220     1.6100 c3         1 M04       0.097800
      5 N6           3.4000    -2.7170     1.6090 nz         1 M04      -0.817600
      6 C7          -0.0050    -1.0860     2.2220 c3         1 M04      -0.082400
      7 C8          -0.5770    -1.0860     0.8100 c3         1 M04       0.200300
      8 C9           2.0940     0.1530     4.4000 ca         1 M04      -0.112300
      9 C10          3.2290     0.9460     4.3310 ca         1 M04      -0.111000
     10 C11          3.2930     2.1390     5.0210 ca         1 M04      -0.109500
     11 C12          2.2240     2.5510     5.7930 ca         1 M04       0.045400
     12 Cl1          2.3290     4.0270     6.7010 cl         1 M04      -0.069400
     13 C14          1.0960     1.7560     5.8830 ca         1 M04      -0.109500
     14 C15          1.0340     0.5640     5.1920 ca         1 M04      -0.111000
     15 C16         -0.6880     0.2470    -1.2380 ca         1 M04       0.699200
     16 N17         -1.7670    -0.5140    -1.4970 nb         1 M04      -0.784000
     17 C13          2.0470    -1.1720     3.6900 c3         1 M04      -0.021100
     18 C18         -2.4290    -0.2980    -2.6390 ca         1 M04       0.677900
     19 N19         -2.1630     0.5870    -3.6010 nb         1 M04      -0.697000
     20 C20         -1.0850     1.3280    -3.3100 ca         1 M04       0.461800
     21 N21         -0.5540     2.3080    -4.0970 na         1 M04      -0.253100
     22 C22          0.5250     2.8520    -3.4820 cc         1 M04      -0.091100
     23 C23          0.7110     2.2130    -2.2820 cd         1 M04      -0.200200
     24 C24         -0.3210     1.2330    -2.1620 ca         1 M04      -0.329400
     25 C4           1.5260    -1.1760     2.2450 c3         1 M04      -0.083000
     26 H2C1         1.8240    -0.8830    -0.5200 h1         1 M04       0.051950
     27 H2C2         1.8240     0.8830    -0.5190 h1         1 M04       0.051950
     28 H8C1        -1.6510    -0.9550     0.8640 h1         1 M04       0.051950
     29 H8C2        -0.3530    -2.0360     0.3380 h1         1 M04       0.051950
     30 H3C1         1.7620     0.9250     1.9020 hc         1 M04       0.069450
     31 H3C2         3.1220    -0.0600     1.3540 hc         1 M04       0.069450
     32 H5C1         1.4630    -3.3250     2.1710 hx         1 M04       0.112200
     33 H5C2         1.5640    -2.5530     0.5890 hx         1 M04       0.112200
     34 H6N1         3.6710    -3.2080     0.7800 hn         1 M04       0.455800
     35 H6N2         3.8550    -1.8260     1.6320 hn         1 M04       0.455800
     36 H7C1        -0.4100    -1.9340     2.7610 hc         1 M04       0.069450
     37 H7C2        -0.3070    -0.1720     2.7190 hc         1 M04       0.069450
     38 H10          4.0680     0.6320     3.7220 ha         1 M04       0.128500
     39 H15          0.1450    -0.0510     5.2610 ha         1 M04       0.128500
     40 H131         1.4200    -1.8380     4.2700 hc         1 M04       0.036700
     41 H132         3.0510    -1.5800     3.6820 hc         1 M04       0.036700
     42 H11          4.1840     2.7520     4.9610 ha         1 M04       0.158500
     43 H14          0.2590     2.0720     6.4930 ha         1 M04       0.158500
     44 H18         -3.2910    -0.9320    -2.8090 h5         1 M04       0.057100
     45 H21         -0.9110     2.5890    -4.9880 hn         1 M04       0.321700
     46 H22          1.1360     3.6570    -3.8720 h4         1 M04       0.185000
     47 H23          1.4900     2.4180    -1.5580 ha         1 M04       0.151000
     48 H63          3.6650    -3.2630     2.4050 hn         1 M04       0.455800
@<TRIPOS>BOND
     1     1     2 1
     2     1     7 1
     3     1    15 1
     4     2     3 1
     5     3    25 1
     6     4     5 1
     7     4    25 1
     8     6     7 1
     9     6    25 1
    10     8     9 ar
    11     8    14 ar
    12     8    17 1
    13     9    10 ar
    14    10    11 ar
    15    11    12 1
    16    11    13 ar
    17    13    14 ar
    18    15    16 ar
    19    15    24 ar
    20    16    18 ar
    21    18    19 ar
    22    17    25 1
    23    19    20 ar
    24    20    21 1
    25    20    24 ar
    26    21    22 1
    27    22    23 2
    28    23    24 1
    29     2    26 1
    30     2    27 1
    31     7    28 1
    32     7    29 1
    33     3    30 1
    34     3    31 1
    35     4    32 1
    36     4    33 1
    37     5    34 1
    38     5    35 1
    39     6    36 1
    40     6    37 1
    41     9    38 1
    42    14    39 1
    43    17    40 1
    44    17    41 1
    45    10    42 1
    46    13    43 1
    47    18    44 1
    48    21    45 1
    49    22    46 1
    50    23    47 1
    51    48     5 1
@<TRIPOS>SUBSTRUCTURE
     1 M04         1 TEMP              0 ****  ****    0 ROOT
