@<TRIPOS>MOLECULE
M05
   45    48     1     0     0
SMALL
bcc


@<TRIPOS>ATOM
      1 N1           0.0000     0.0000     0.0000 nh         1 M05      -0.482300
      2 C8           1.4690     0.0000     0.0000 c3         1 M05       0.173300
      3 C4           2.0160     2.5170     1.9110 c3         1 M05       0.033900
      4 C5           1.4520     1.1330     2.3030 c3         1 M05      -0.062800
      5 N6           1.7310     0.7930     3.7410 nz         1 M05       0.030400
      6 C2          -0.4960     1.2110     0.6600 c3         1 M05       0.173300
      7 C9           3.5140     2.6760     1.9160 ca         1 M05      -0.147300
      8 C10          4.2480     2.5210     3.0930 ca         1 M05      -0.088500
      9 C11          5.6180     2.6820     3.0870 ca         1 M05      -0.073500
     10 C12          6.2700     3.0210     1.9110 ca         1 M05      -0.027600
     11 Cl1          7.9920     3.2340     1.9050 cl         1 M05       0.038600
     12 C14          5.5460     3.1930     0.7410 ca         1 M05      -0.073500
     13 C15          4.1780     3.0260     0.7440 ca         1 M05      -0.088500
     14 C16         -0.8180    -1.1470    -0.1450 ca         1 M05       0.598200
     15 N17         -0.2050    -2.3510    -0.1120 nb         1 M05      -0.729000
     16 C18         -0.9640    -3.4470    -0.2510 ca         1 M05       0.662900
     17 N19         -2.2780    -3.5340    -0.4640 nb         1 M05      -0.620000
     18 C20         -2.8590    -2.3110    -0.5220 ca         1 M05       0.233800
     19 N21         -4.1820    -2.0440    -0.7400 na         1 M05       0.320900
     20 C22         -4.3710    -0.7010    -0.7430 cc         1 M05      -0.269100
     21 C23         -3.1660    -0.0890    -0.5300 cd         1 M05      -0.160200
     22 C3           2.0080     0.0000     1.4230 c3         1 M05      -0.062900
     23 C17         -0.0710     1.2100     2.1170 c3         1 M05      -0.062900
     24 C24         -2.1990    -1.0910    -0.3880 ca         1 M05      -0.335400
     25 H8C1         1.8240     0.8850    -0.5150 h1         1 M05       0.052450
     26 H8C2         1.8240    -0.8850    -0.5140 h1         1 M05       0.052450
     27 H2C1        -1.5780     1.2350     0.6020 h1         1 M05       0.052450
     28 H2C2        -0.0850     2.0830     0.1670 h1         1 M05       0.052450
     29 H3C1         1.7580    -0.9480     1.8840 hc         1 M05       0.038950
     30 H3C2         3.0860     0.0960     1.3810 hc         1 M05       0.038950
     31 H4C1         1.6030     3.2500     2.5940 hc         1 M05       0.050700
     32 H4C2         1.6610     2.7510     0.9150 hc         1 M05       0.050700
     33 H6N1         2.6620     0.4340     3.8240 hn         1 M05       0.232800
     34 H6N2         1.6400     1.6160     4.3030 hn         1 M05       0.232800
     35 H171        -0.4310     2.1190     2.5840 hc         1 M05       0.038950
     36 H172        -0.5230     0.3570     2.6090 hc         1 M05       0.038950
     37 H10          3.7410     2.2570     4.0130 ha         1 M05       0.091500
     38 H15          3.6160     3.1620    -0.1730 ha         1 M05       0.091500
     39 H11          6.1820     2.5610     4.0040 ha         1 M05       0.129000
     40 H14          6.0560     3.4620    -0.1760 ha         1 M05       0.129000
     41 H18         -0.4320    -4.3910    -0.2170 h5         1 M05      -0.008900
     42 H21         -4.8980    -2.7310    -0.8740 hn         1 M05       0.133700
     43 H22         -5.3180    -0.1970    -0.8900 h4         1 M05       0.156000
     44 H23         -2.9920     0.9790    -0.4790 ha         1 M05       0.132000
     45 H4           1.0790     0.1010     4.0540 hn         1 M05       0.232800
@<TRIPOS>BOND
     1     1     2 1   
     2     1     6 1   
     3     1    14 1   
     4     2    22 1   
     5     2    25 1   
     6     2    26 1   
     7     3     4 1   
     8     3     7 1   
     9     3    31 1   
    10     3    32 1   
    11     4     5 1   
    12     4    22 1   
    13     4    23 1   
    14     5    33 1   
    15     5    34 1   
    16     5    45 1   
    17     6    23 1   
    18     6    27 1   
    19     6    28 1   
    20     7     8 ar  
    21     7    13 ar  
    22     8     9 ar  
    23     8    37 1   
    24     9    10 ar  
    25     9    39 1   
    26    10    11 1   
    27    10    12 ar  
    28    12    13 ar  
    29    12    40 1   
    30    13    38 1   
    31    14    15 ar  
    32    14    24 ar  
    33    15    16 ar  
    34    16    17 ar  
    35    16    41 1   
    36    17    18 ar  
    37    18    19 1   
    38    18    24 ar  
    39    19    20 1   
    40    19    42 1   
    41    20    21 2   
    42    20    43 1   
    43    21    24 1   
    44    21    44 1   
    45    22    29 1   
    46    22    30 1   
    47    23    35 1   
    48    23    36 1   
@<TRIPOS>SUBSTRUCTURE
     1 M05         1 TEMP              0 ****  ****    0 ROOT
