@<TRIPOS>MOLECULE
molecule
   45    48     1     0     0
SMALL
bcc


@<TRIPOS>ATOM
      1 N1           0.0000     0.0000     0.0000 nh         1 M05      -0.809300
      2 C8           1.4690     0.0000     0.0000 c3         1 M05       0.237300
      3 C4           2.0160     2.5170     1.9110 c3         1 M05      -0.041100
      4 C5           1.4520     1.1330     2.3030 c3         1 M05       0.130200
      5 N6           1.7310     0.7930     3.7410 nz         1 M05      -0.820600
      6 C2          -0.4960     1.2110     0.6600 c3         1 M05       0.237300
      7 C9           3.5140     2.6760     1.9160 ca         1 M05      -0.129300
      8 C10          4.2480     2.5210     3.0930 ca         1 M05      -0.119500
      9 C11          5.6180     2.6820     3.0870 ca         1 M05      -0.101500
     10 C12          6.2700     3.0210     1.9110 ca         1 M05       0.045400
     11 Cl1          7.9920     3.2340     1.9050 cl         1 M05      -0.057400
     12 C14          5.5460     3.1930     0.7410 ca         1 M05      -0.101500
     13 C15          4.1780     3.0260     0.7440 ca         1 M05      -0.119500
     14 C16         -0.8180    -1.1470    -0.1450 ca         1 M05       0.731200
     15 N17         -0.2050    -2.3510    -0.1120 nb         1 M05      -0.797000
     16 C18         -0.9640    -3.4470    -0.2510 ca         1 M05       0.676900
     17 N19         -2.2780    -3.5340    -0.4640 nb         1 M05      -0.695000
     18 C20         -2.8590    -2.3110    -0.5220 ca         1 M05       0.454800
     19 N21         -4.1820    -2.0440    -0.7400 na         1 M05      -0.244100
     20 C22         -4.3710    -0.7010    -0.7430 cc         1 M05      -0.093100
     21 C23         -3.1660    -0.0890    -0.5300 cd         1 M05      -0.199200
     22 C3           2.0080     0.0000     1.4230 c3         1 M05      -0.130400
     23 C17         -0.0710     1.2100     2.1170 c3         1 M05      -0.130400
     24 C24         -2.1990    -1.0910    -0.3880 ca         1 M05      -0.335400
     25 H8C1         1.8240     0.8850    -0.5150 h1         1 M05       0.082450
     26 H8C2         1.8240    -0.8850    -0.5140 h1         1 M05       0.082450
     27 H2C1        -1.5780     1.2350     0.6020 h1         1 M05       0.082450
     28 H2C2        -0.0850     2.0830     0.1670 h1         1 M05       0.082450
     29 H3C1         1.7580    -0.9480     1.8840 hc         1 M05       0.068700
     30 H3C2         3.0860     0.0960     1.3810 hc         1 M05       0.068700
     31 H4C1         1.6030     3.2500     2.5940 hc         1 M05       0.082700
     32 H4C2         1.6610     2.7510     0.9150 hc         1 M05       0.082700
     33 H6N1         2.6620     0.4340     3.8240 hn         1 M05       0.451800
     34 H6N2         1.6400     1.6160     4.3030 hn         1 M05       0.451800
     35 H171        -0.4310     2.1190     2.5840 hc         1 M05       0.068700
     36 H172        -0.5230     0.3570     2.6090 hc         1 M05       0.068700
     37 H10          3.7410     2.2570     4.0130 ha         1 M05       0.120000
     38 H15          3.6160     3.1620    -0.1730 ha         1 M05       0.120000
     39 H11          6.1820     2.5610     4.0040 ha         1 M05       0.163500
     40 H14          6.0560     3.4620    -0.1760 ha         1 M05       0.163500
     41 H18         -0.4320    -4.3910    -0.2170 h5         1 M05       0.056100
     42 H21         -4.8980    -2.7310    -0.8740 hn         1 M05       0.324700
     43 H22         -5.3180    -0.1970    -0.8900 h4         1 M05       0.187000
     44 H23         -2.9920     0.9790    -0.4790 ha         1 M05       0.152000
     45 H4           1.0790     0.1010     4.0540 hn         1 M05       0.451800
@<TRIPOS>BOND
     1     1     2 1
     2     1     6 1
     3     1    14 1
     4     2    22 1
     5     3     4 1
     6     3     7 1
     7     4     5 1
     8     4    22 1
     9     4    23 1
    10     6    23 1
    11     7     8 ar
    12     7    13 ar
    13     8     9 ar
    14     9    10 ar
    15    10    11 1
    16    10    12 ar
    17    12    13 ar
    18    14    15 ar
    19    14    24 ar
    20    15    16 ar
    21    16    17 ar
    22    17    18 ar
    23    18    19 1
    24    18    24 ar
    25    19    20 1
    26    20    21 2
    27    21    24 1
    28     2    25 1
    29     2    26 1
    30     6    27 1
    31     6    28 1
    32    22    29 1
    33    22    30 1
    34     3    31 1
    35     3    32 1
    36     5    33 1
    37     5    34 1
    38    23    35 1
    39    23    36 1
    40     8    37 1
    41    13    38 1
    42     9    39 1
    43    12    40 1
    44    16    41 1
    45    19    42 1
    46    20    43 1
    47    21    44 1
    48     5    45 1
@<TRIPOS>SUBSTRUCTURE
     1 M05         1 TEMP              0 ****  ****    0 ROOT
