@<TRIPOS>MOLECULE
M06
   42    45     1     0     0
SMALL
bcc


@<TRIPOS>ATOM
      1 C            0.0000     0.0000     0.0000 cc         1 M06       0.004800
      2 N            1.4150    -0.0000     2.3580 n          1 M06       0.161000
      3 O           -2.0290     0.0100     1.2190 os         1 M06      -0.173200
      4 Cl          -1.6080     4.7810     2.9200 cl         1 M06      -0.011400
      5 C1           1.4020     0.0000     0.0000 cc         1 M06      -0.195000
      6 C2           2.0790     0.0000     1.1710 cd         1 M06      -0.107400
      7 C3           0.0690     0.0050     2.3950 c          1 M06       0.558700
      8 C4          -0.6680     0.0050     1.1920 cd         1 M06      -0.061100
      9 C5          -2.6530     1.1180     1.6970 ca         1 M06       0.200100
     10 C6          -0.7620     0.0010    -1.3000 c3         1 M06       0.053100
     11 C7          -4.0290     1.1220     1.8560 ca         1 M06      -0.138000
     12 C8          -4.6670     2.2610     2.3480 ca         1 M06       0.074000
     13 C9          -3.9130     3.3910     2.6750 ca         1 M06      -0.126000
     14 C10         -2.5430     3.3760     2.5130 ca         1 M06       0.008400
     15 C11         -1.9110     2.2430     2.0300 ca         1 M06      -0.201000
     16 O12         -0.5120     0.0050     3.4680 o          1 M06      -0.725500
     17 C13          2.4280    -1.4220     4.0440 cc         1 M06      -0.272300
     18 N14          1.7390    -2.0990     4.9690 na         1 M06       0.554800
     19 N15          2.2600    -3.3910     5.1040 nc         1 M06      -0.358400
     20 C16          3.2750    -3.5350     4.2720 ca         1 M06       0.332300
     21 C17          3.4120    -2.2590     3.5520 ca         1 M06      -0.302300
     22 N18          4.1210    -4.5380     3.9860 nb         1 M06      -0.533000
     23 C19          5.0610    -4.3960     3.0870 ca         1 M06       0.445200
     24 C20          5.2470    -3.2120     2.3740 ca         1 M06      -0.233300
     25 C21          4.4310    -2.1400     2.5820 ca         1 M06      -0.005000
     26 C22          2.1740    -0.0010     3.6110 c3         1 M06      -0.249800
     27 C23         -6.0900     2.2730     2.5150 cg         1 M06       0.228800
     28 N24         -7.2190     2.2960     2.6340 n1         1 M06      -0.371800
     29 H1           1.9360    -0.0490    -0.9410 ha         1 M06       0.131000
     30 H2           3.1620     0.0230     1.1650 h4         1 M06       0.142000
     31 H16         -1.4810    -0.8100    -1.2980 hc         1 M06       0.020700
     32 H26         -1.2820     0.9440    -1.4140 hc         1 M06       0.020700
     33 H36         -0.0710    -0.1320    -2.1240 hc         1 M06       0.020700
     34 H7          -4.5260     0.2670     2.2970 ha         1 M06       0.134000
     35 H9          -4.4040     4.2770     3.0570 ha         1 M06       0.126000
     36 H11         -0.9030     2.1340     2.4110 ha         1 M06       0.145000
     37 HN14         0.9410    -1.7620     5.4710 hn         1 M06       0.176700
     38 H19          5.7330    -5.2180     2.8720 h4         1 M06      -0.016900
     39 H20          6.0390    -3.1410     1.6390 ha         1 M06       0.119000
     40 H21          4.5600    -1.2100     2.0420 ha         1 M06       0.118000
     41 H122         2.4860    -1.0110     3.8440 h1         1 M06       0.153700
     42 H222         1.5490     0.3770     4.4120 h1         1 M06       0.153700
@<TRIPOS>BOND
     1     1     5 1   
     2     1     8 2   
     3     1    10 1   
     4     2     6 1   
     5     2     7 1   
     6     2    26 1   
     7     3     8 1   
     8     3     9 1   
     9     4    14 1   
    10     5     6 2   
    11     5    29 1   
    12     6    30 1   
    13     7     8 1   
    14     7    16 2   
    15     9    11 ar  
    16     9    15 ar  
    17    10    31 1   
    18    10    32 1   
    19    10    33 1   
    20    11    12 ar  
    21    11    34 1   
    22    12    13 ar  
    23    12    27 1   
    24    13    14 ar  
    25    13    35 1   
    26    14    15 ar  
    27    15    36 1   
    28    17    18 1   
    29    17    21 2   
    30    17    26 1   
    31    18    19 1   
    32    18    37 1   
    33    19    20 2   
    34    20    21 ar  
    35    20    22 ar  
    36    21    25 ar  
    37    22    23 ar  
    38    23    24 ar  
    39    23    38 1   
    40    24    25 ar  
    41    24    39 1   
    42    25    40 1   
    43    26    41 1   
    44    26    42 1   
    45    27    28 3   
@<TRIPOS>SUBSTRUCTURE
     1 M06         1 TEMP              0 ****  ****    0 ROOT
