@<TRIPOS>MOLECULE
molecule
   42    45     1     0     0
SMALL
bcc


@<TRIPOS>ATOM
      1 C            0.0000     0.0000     0.0000 cc         1 M06       0.025800
      2 N            1.4150    -0.0000     2.3580 n          1 M06      -0.296000
      3 O           -2.0290     0.0100     1.2190 os         1 M06      -0.199200
      4 Cl          -1.6080     4.7810     2.9200 cl         1 M06      -0.093400
      5 C1           1.4020     0.0000     0.0000 cd         1 M06      -0.241000
      6 C2           2.0790     0.0000     1.1710 cc         1 M06       0.042600
      7 C3           0.0690     0.0050     2.3950 c          1 M06       0.654700
      8 C4          -0.6680     0.0050     1.1920 cd         1 M06      -0.067100
      9 C5          -2.6530     1.1180     1.6970 ca         1 M06       0.177100
     10 C6          -0.7620     0.0010    -1.3000 c3         1 M06      -0.058900
     11 C7          -4.0290     1.1220     1.8560 ca         1 M06      -0.135000
     12 C8          -4.6670     2.2610     2.3480 ca         1 M06       0.016000
     13 C9          -3.9130     3.3910     2.6750 ca         1 M06      -0.132000
     14 C10         -2.5430     3.3760     2.5130 ca         1 M06       0.059400
     15 C11         -1.9110     2.2430     2.0300 ca         1 M06      -0.193000
     16 O12         -0.5120     0.0050     3.4680 o          1 M06      -0.669500
     17 C13          2.4280    -1.4220     4.0440 cc         1 M06      -0.141300
     18 N14          1.7390    -2.0990     4.9690 na         1 M06       0.039800
     19 N15          2.2600    -3.3910     5.1040 nc         1 M06      -0.197400
     20 C16          3.2750    -3.5350     4.2720 ca         1 M06       0.345300
     21 C17          3.4120    -2.2590     3.5520 ca         1 M06      -0.281300
     22 N18          4.1210    -4.5380     3.9860 nb         1 M06      -0.650000
     23 C19          5.0610    -4.3960     3.0870 ca         1 M06       0.473200
     24 C20          5.2470    -3.2120     2.3740 ca         1 M06      -0.267300
     25 C21          4.4310    -2.1400     2.5820 ca         1 M06      -0.034000
     26 C22          2.1740    -0.0010     3.6110 c3         1 M06      -0.122800
     27 C23         -6.0900     2.2730     2.5150 cg         1 M06       0.241800
     28 N24         -7.2190     2.2960     2.6340 n1         1 M06      -0.350800
     29 H1           1.9360    -0.0490    -0.9410 ha         1 M06       0.157000
     30 H2           3.1620     0.0230     1.1650 h4         1 M06       0.168000
     31 H16         -1.4810    -0.8100    -1.2980 hc         1 M06       0.059033
     32 H26         -1.2820     0.9440    -1.4140 hc         1 M06       0.059033
     33 H36         -0.0710    -0.1320    -2.1240 hc         1 M06       0.059033
     34 H7          -4.5260     0.2670     2.2970 ha         1 M06       0.163000
     35 H9          -4.4040     4.2770     3.0570 ha         1 M06       0.154000
     36 H11         -0.9030     2.1340     2.4110 ha         1 M06       0.165000
     37 HN14         0.9410    -1.7620     5.4710 hn         1 M06       0.363700
     38 H19          5.7330    -5.2180     2.8720 h4         1 M06       0.035100
     39 H20          6.0390    -3.1410     1.6390 ha         1 M06       0.148000
     40 H21          4.5600    -1.2100     2.0420 ha         1 M06       0.147000
     41 H122         2.4860    -1.0110     3.8440 h1         1 M06       0.187200
     42 H222         1.5490     0.3770     4.4120 h1         1 M06       0.187200
@<TRIPOS>BOND
     1    19    18 1
     2    19    20 2
     3    18    17 1
     4    20    22 ar
     5    20    21 ar
     6     6     5 2
     7     6     2 1
     8    22    23 ar
     9    17    26 1
    10    17    21 2
    11     5     1 1
    12    26     2 1
    13    21    25 ar
    14     2     7 1
    15    23    24 ar
    16     1    10 1
    17     1     8 2
    18    25    24 ar
    19     7     8 1
    20     7    16 2
    21     8     3 1
    22     3     9 1
    23     9    15 ar
    24     9    11 ar
    25    15    14 ar
    26    11    12 ar
    27    14     4 1
    28    14    13 ar
    29    12    13 ar
    30    12    27 1
    31    27    28 3
    32     5    29 1
    33     6    30 1
    34    10    31 1
    35    10    32 1
    36    10    33 1
    37    11    34 1
    38    13    35 1
    39    15    36 1
    40    18    37 1
    41    23    38 1
    42    24    39 1
    43    25    40 1
    44    26    41 1
    45    26    42 1
@<TRIPOS>SUBSTRUCTURE
     1 M06         1 TEMP              0 ****  ****    0 ROOT
