@<TRIPOS>MOLECULE
M07
   42    44     1     0     0
SMALL
bcc


@<TRIPOS>ATOM
      1 C15          0.0000     0.0000     0.0000 c3         1 M07       0.243700
      2 O8           1.4290     0.0000     0.0000 os         1 M07      -0.306900
      3 C12          2.0450     0.0000     1.2100 ca         1 M07       0.164100
      4 C11          1.2860    -0.0060     2.3740 ca         1 M07      -0.183000
      5 C10          1.9080    -0.0120     3.6040 ca         1 M07      -0.032500
      6 C13          3.4320    -0.0000     1.2800 ca         1 M07      -0.183000
      7 C14          4.0620    -0.0020     2.5060 ca         1 M07      -0.032500
      8 C9           3.3030    -0.0120     3.6790 ca         1 M07      -0.156900
      9 C8           3.9730    -0.0180     4.9930 ce         1 M07       0.380900
     10 C7           5.4730    -0.0190     5.2280 c3         1 M07      -0.105700
     11 N1           3.3830    -0.0180     6.1440 n2         1 M07      -0.337200
     12 O7           4.2930    -0.0170     7.2280 os         1 M07      -0.167300
     13 C1           5.5760    -0.4110     6.7150 c3         1 M07       0.323600
     14 O5           6.6210     0.3100     7.3500 os         1 M07      -0.368600
     15 C5           6.7540     0.0410     8.7490 c3         1 M07       0.162100
     16 C6           7.9100     0.8650     9.3190 c3         1 M07       0.224400
     17 O6           7.5930     2.2560     9.2300 oh         1 M07      -0.579800
     18 C4           7.0380    -1.4490     8.9550 c3         1 M07       0.142100
     19 O4           7.1290    -1.7280    10.3530 oh         1 M07      -0.578800
     20 C3           5.9000    -2.2700     8.3400 c3         1 M07       0.139100
     21 O3           6.1890    -3.6630     8.4760 oh         1 M07      -0.592800
     22 C2           5.7750    -1.9140     6.8550 c3         1 M07       0.137100
     23 O2           4.6540    -2.5990     6.2930 oh         1 M07      -0.569800
     24 H151        -0.3610     0.0030    -1.0210 h1         1 M07      -0.001300
     25 H152        -0.3610     0.8830     0.5130 h1         1 M07      -0.001300
     26 H153        -0.3610    -0.8860     0.5080 h1         1 M07      -0.001300
     27 H11          0.2040    -0.0060     2.3150 ha         1 M07       0.121000
     28 H10          1.3150    -0.0180     4.5110 ha         1 M07       0.113500
     29 H13          4.0200     0.0070     0.3700 ha         1 M07       0.121000
     30 H14          5.1440    -0.0020     2.5600 ha         1 M07       0.113500
     31 H71          5.8870     0.9680     5.0620 hc         1 M07       0.047700
     32 H72          5.9580    -0.7590     4.6030 hc         1 M07       0.047700
     33 H5           5.8330     0.3050     9.2550 h1         1 M07       0.048700
     34 H61          8.0680     0.5960    10.3570 h1         1 M07      -0.003300
     35 H62          8.8120     0.6630     8.7530 h1         1 M07      -0.003300
     36 HO6          8.2600     2.7590     9.6670 ho         1 M07       0.388000
     37 H4           7.9710    -1.7080     8.4690 h1         1 M07       0.017700
     38 HO4          7.8680    -2.2910    10.5140 ho         1 M07       0.398000
     39 H3           4.9720    -2.0360     8.8470 h1         1 M07       0.043700
     40 HO3          5.5150    -4.0750     8.9920 ho         1 M07       0.404000
     41 H2           6.6800    -2.2060     6.3370 h1         1 M07       0.024700
     42 HO2          4.9370    -3.4250     5.9370 ho         1 M07       0.399000
@<TRIPOS>BOND
     1     1     2 1   
     2     1    24 1   
     3     1    25 1   
     4     1    26 1   
     5     2     3 1   
     6     3     4 ar  
     7     3     6 ar  
     8     4     5 ar  
     9     4    27 1   
    10     5     8 ar  
    11     5    28 1   
    12     6     7 ar  
    13     6    29 1   
    14     7     8 ar  
    15     7    30 1   
    16     8     9 1   
    17     9    10 1   
    18     9    11 2   
    19    10    13 1   
    20    10    31 1   
    21    10    32 1   
    22    11    12 1   
    23    12    13 1   
    24    13    14 1   
    25    13    22 1   
    26    14    15 1   
    27    15    16 1   
    28    15    18 1   
    29    15    33 1   
    30    16    17 1   
    31    16    34 1   
    32    16    35 1   
    33    17    36 1   
    34    18    19 1   
    35    18    20 1   
    36    18    37 1   
    37    19    38 1   
    38    20    21 1   
    39    20    22 1   
    40    20    39 1   
    41    21    40 1   
    42    22    23 1   
    43    22    41 1   
    44    23    42 1   
@<TRIPOS>SUBSTRUCTURE
     1 M07         1 TEMP              0 ****  ****    0 ROOT
