@<TRIPOS>MOLECULE
molecule
   38    40     1     0     0
SMALL
bcc


@<TRIPOS>ATOM
      1 C10          0.0000     0.0000     0.0000 ca         1 M08      -0.098000
      2 C11          1.3790     0.0000     0.0000 ca         1 M08      -0.133000
      3 C12          2.0730     0.0000     1.1970 ca         1 M08      -0.114000
      4 C13          1.3910    -0.0010     2.4000 ca         1 M08      -0.133000
      5 C14          0.0110    -0.0010     2.4140 ca         1 M08      -0.098000
      6 C9          -0.6960    -0.0010     1.2110 ca         1 M08      -0.110900
      7 C8          -2.1720    -0.0010     1.2170 ce         1 M08       0.383900
      8 C7          -3.0560    -0.0020     2.4520 c3         1 M08      -0.160700
      9 N1          -2.9340     0.0050     0.1740 n2         1 M08      -0.350200
     10 O7          -4.3120     0.0100     0.4980 os         1 M08      -0.168300
     11 C1          -4.4320    -0.3870     1.8740 c3         1 M08       0.302600
     12 O5          -5.4670     0.3360     2.5240 os         1 M08      -0.379600
     13 C5          -6.7770     0.0740     2.0130 c3         1 M08       0.142100
     14 C6          -7.8040     0.8990     2.7900 c3         1 M08       0.151400
     15 O6          -7.5760     2.2900     2.5520 oh         1 M08      -0.596800
     16 C4          -7.0940    -1.4160     2.1700 c3         1 M08       0.105100
     17 O4          -8.3860    -1.6890     1.6220 oh         1 M08      -0.597800
     18 C3          -6.0380    -2.2390     1.4270 c3         1 M08       0.110100
     19 O3          -6.2930    -3.6320     1.6210 oh         1 M08      -0.610800
     20 C2          -4.6530    -1.8890     1.9850 c3         1 M08       0.108100
     21 O2          -3.6500    -2.5770     1.2340 oh         1 M08      -0.587800
     22 H10         -0.5420     0.0000    -0.9380 ha         1 M08       0.142000
     23 H11          1.9200     0.0010    -0.9390 ha         1 M08       0.134500
     24 H12          3.1570     0.0000     1.1920 ha         1 M08       0.132000
     25 H13          1.9400    -0.0020     3.3340 ha         1 M08       0.134500
     26 H14         -0.5220    -0.0020     3.3570 ha         1 M08       0.142000
     27 H71         -2.7190    -0.7450     3.1650 hc         1 M08       0.082200
     28 H72         -3.0910     0.9840     2.8990 hc         1 M08       0.082200
     29 H5          -6.8130     0.3400     0.9630 h1         1 M08       0.085700
     30 H61         -7.7050     0.6940     3.8490 h1         1 M08       0.034700
     31 H62         -8.8020     0.6350     2.4620 h1         1 M08       0.034700
     32 HO6         -8.2750     2.7930     2.9350 ho         1 M08       0.402000
     33 H4          -7.0800    -1.6770     3.2210 h1         1 M08       0.050700
     34 HO4         -8.8840    -2.2060     2.2330 ho         1 M08       0.411000
     35 H3          -6.0720    -2.0020     0.3710 h1         1 M08       0.080700
     36 HO3         -6.4490    -4.0410     0.7860 ho         1 M08       0.417000
     37 H2          -4.5990    -2.1850     3.0260 h1         1 M08       0.056700
     38 HO2         -3.4060    -3.3680     1.6860 ho         1 M08       0.413000
@<TRIPOS>BOND
     1    19    18 1
     2    17    16 1
     3    18    16 1
     4    18    20 1
     5    16    13 1
     6    21    20 1
     7    20    11 1
     8    15    14 1
     9    13    14 1
    10    13    12 1
    11    11    12 1
    12    11    10 1
    13    11     8 1
    14    10     9 1
    15     8     7 1
    16     9     7 2
    17     7     6 1
    18     1     6 ar
    19     1     2 ar
    20     6     5 ar
    21     2     3 ar
    22     5     4 ar
    23     3     4 ar
    24     1    22 1
    25     2    23 1
    26     3    24 1
    27     4    25 1
    28     5    26 1
    29     8    27 1
    30     8    28 1
    31    13    29 1
    32    14    30 1
    33    14    31 1
    34    15    32 1
    35    16    33 1
    36    17    34 1
    37    18    35 1
    38    19    36 1
    39    20    37 1
    40    21    38 1
@<TRIPOS>SUBSTRUCTURE
     1 M08         1 TEMP              0 ****  ****    0 ROOT
