@<TRIPOS>MOLECULE
M09
   42    44     1     0     0
SMALL
bcc


@<TRIPOS>ATOM
      1 C10          0.0000     0.0000     0.0000 ca         1 M09      -0.106000
      2 C11          1.3830     0.0000     0.0000 ca         1 M09      -0.014000
      3 C12          2.0730     0.0000     1.1970 ca         1 M09      -0.451200
      4 N2           3.5530    -0.0010     1.1960 no         1 M09       1.048200
      5 O9           4.1620    -0.0010     0.1420 o          1 M09      -0.451500
      6 O8           4.1630    -0.0010     2.2510 o          1 M09      -0.451500
      7 C13          1.3820     0.0010     2.3940 ca         1 M09      -0.014000
      8 C14         -0.0000     0.0010     2.3940 ca         1 M09      -0.106000
      9 C9          -0.6910     0.0070     1.1970 ca         1 M09      -0.033300
     10 C8          -2.1990     0.0070     1.1960 c3         1 M09       0.141800
     11 C7          -2.7460     1.4260     1.5000 c3         1 M09      -0.041400
     12 N1          -2.7220    -0.8080     2.3180 n7         1 M09      -0.342700
     13 O7          -3.8920    -0.1190     2.8750 os         1 M09      -0.264100
     14 C1          -4.1150     1.0920     2.1320 c3         1 M09       0.335600
     15 O5          -5.0840     0.8840     1.1110 os         1 M09      -0.399600
     16 C5          -6.3830     0.5380     1.5980 c3         1 M09       0.165100
     17 C6          -7.3340     0.3380     0.4150 c3         1 M09       0.224400
     18 O6          -6.9070    -0.7880    -0.3540 oh         1 M09      -0.586800
     19 C4          -6.9080     1.6660     2.4890 c3         1 M09       0.142100
     20 O4          -8.1880     1.3050     3.0140 oh         1 M09      -0.578800
     21 C3          -5.9280     1.8960     3.6430 c3         1 M09       0.140100
     22 O3          -6.3790     2.9890     4.4450 oh         1 M09      -0.591800
     23 C2          -4.5450     2.2190     3.0660 c3         1 M09       0.159100
     24 O2          -3.6000     2.3440     4.1300 oh         1 M09      -0.564800
     25 H10         -0.5420     0.0020    -0.9380 ha         1 M09       0.129000
     26 H11          1.9240    -0.0050    -0.9380 ha         1 M09       0.132500
     27 H13          1.9240    -0.0020     3.3320 ha         1 M09       0.132500
     28 H14         -0.5420     0.0040     3.3320 ha         1 M09       0.129000
     29 H8          -2.5860    -0.3550     0.2520 h1         1 M09       0.038700
     30 H71         -2.8700     1.9960     0.5880 hc         1 M09       0.049200
     31 H72         -2.1100     1.9430     2.2080 hc         1 M09       0.049200
     32 HN1         -2.9960    -1.7080     1.9770 hn         1 M09       0.264800
     33 H5          -6.3190    -0.3760     2.1750 h1         1 M09       0.044700
     34 H61         -8.3380     0.1630     0.7850 h1         1 M09      -0.001800
     35 H62         -7.3280     1.2240    -0.2070 h1         1 M09      -0.001800
     36 HO6         -7.5170    -0.9380    -1.0580 ho         1 M09       0.391000
     37 H4          -6.9950     2.5750     1.9060 h1         1 M09       0.018700
     38 HO4         -8.7690     2.0450     2.9620 ho         1 M09       0.399000
     39 H3          -5.8660     0.9990     4.2480 h1         1 M09       0.040700
     40 HO3         -6.5390     2.6900     5.3240 ho         1 M09       0.404000
     41 H2          -4.5960     3.1480     2.5100 h1         1 M09       0.024700
     42 HO2         -3.4780     3.2550     4.3370 ho         1 M09       0.396000
@<TRIPOS>BOND
     1     1     2 ar  
     2     1     9 ar  
     3     1    25 1   
     4     2     3 ar  
     5     2    26 1   
     6     3     4 1   
     7     3     7 ar  
     8     4     5 1   
     9     4     6 1   
    10     7     8 ar  
    11     7    27 1   
    12     8     9 ar  
    13     8    28 1   
    14     9    10 1   
    15    10    11 1   
    16    10    12 1   
    17    10    29 1   
    18    11    14 1   
    19    11    30 1   
    20    11    31 1   
    21    12    13 1   
    22    12    32 1   
    23    13    14 1   
    24    14    15 1   
    25    14    23 1   
    26    15    16 1   
    27    16    17 1   
    28    16    19 1   
    29    16    33 1   
    30    17    18 1   
    31    17    34 1   
    32    17    35 1   
    33    18    36 1   
    34    19    20 1   
    35    19    21 1   
    36    19    37 1   
    37    20    38 1   
    38    21    22 1   
    39    21    23 1   
    40    21    39 1   
    41    22    40 1   
    42    23    24 1   
    43    23    41 1   
    44    24    42 1   
@<TRIPOS>SUBSTRUCTURE
     1 M09         1 TEMP              0 ****  ****    0 ROOT
