@<TRIPOS>MOLECULE
M0A
   53    56     1     0     0
SMALL
bcc


@<TRIPOS>ATOM
      1 CAQ        -0.0360    0.4500    0.0130 c3        1 M0A     -0.095100
      2 CAP         1.4560    0.6420    0.0960 c3        1 M0A     -0.079400
      3 CAO         1.9620    0.4240    1.5060 c3        1 M0A     -0.083400
      4 CAN         3.4660    0.6120    1.5750 c3        1 M0A     -0.090700
      5 CAL         3.9700    0.4180    2.9680 cc        1 M0A      0.390800
      6 NAK         4.1400    1.4000    3.8750 nd        1 M0A     -0.530100
      7 CAH         4.6110    0.7700    5.0310 ca        1 M0A     -0.095900
      8 CAG         4.9510    1.3340    6.3260 ca        1 M0A      0.747200
      9 NAR         4.9140    2.7020    6.4920 nh        1 M0A     -0.945500
     10 NAI         5.3420    0.5270    7.3320 nb        1 M0A     -0.767000
     11 CAA         5.4650   -0.8260    7.1180 ca        1 M0A      0.471600
     12 CAC         5.8970   -1.6340    8.2220 ca        1 M0A     -0.176300
     13 CAE         6.0570   -2.9910    8.0850 ca        1 M0A     -0.109000
     14 CAF         5.8100   -3.6240    6.8490 ca        1 M0A     -0.147000
     15 CAD         5.3920   -2.8830    5.7680 ca        1 M0A     -0.122000
     16 CAB         5.1950   -1.4880    5.8730 ca        1 M0A     -0.180300
     17 CAJ         4.7350   -0.6420    4.8220 ca        1 M0A     -0.025200
     18 NAM         4.3120   -0.8630    3.5050 na        1 M0A     -0.157300
     19 CAS         4.2230   -2.0980    2.7940 c3        1 M0A      0.084600
     20 CAT         5.4950   -2.5750    2.1400 ca        1 M0A     -0.099300
     21 CAU         5.4110   -3.2280    0.9060 ca        1 M0A     -0.090000
     22 CAV         6.7470   -2.4010    2.7440 ca        1 M0A     -0.056000
     23 CAX         7.9040   -2.8640    2.1140 ca        1 M0A     -0.112000
     24 CAY         7.8220   -3.5100    0.8830 ca        1 M0A     -0.104000
     25 CAW         6.5710   -3.6980    0.2810 ca        1 M0A     -0.202300
     26 CAZ         6.4860   -4.3540   -1.0510 c3        1 M0A      0.176100
     27 NBA         6.5590   -5.8490   -0.9180 n4        1 M0A     -0.845600
     28 H1         -0.3910    0.6180   -1.0330 hc        1 M0A      0.039367
     29 H2         -0.3210   -0.5850    0.3210 hc        1 M0A      0.039367
     30 H3         -0.5640    1.1720    0.6830 hc        1 M0A      0.039367
     31 H4          1.9680   -0.0720   -0.6030 hc        1 M0A      0.037700
     32 H5          1.7210    1.6790   -0.2400 hc        1 M0A      0.037700
     33 H6          1.6860   -0.6060    1.8520 hc        1 M0A      0.052200
     34 H7          1.4640    1.1510    2.2020 hc        1 M0A      0.052200
     35 H8          3.9790   -0.1020    0.8770 hc        1 M0A      0.064200
     36 H9          3.7290    1.6520    1.2390 hc        1 M0A      0.064200
     37 H10         5.0080    3.0800    7.4040 hn        1 M0A      0.442300
     38 H11         4.4230    3.2350    5.8160 hn        1 M0A      0.442300
     39 H12         6.0980   -1.1430    9.1890 ha        1 M0A      0.160000
     40 H13         6.3840   -3.5990    8.9430 ha        1 M0A      0.142000
     41 H14         5.9540   -4.7100    6.7620 ha        1 M0A      0.131000
     42 H15         5.2190   -3.3860    4.8060 ha        1 M0A      0.107000
     43 H16         3.4280   -1.9790    1.9970 h1        1 M0A      0.081700
     44 H17         3.8650   -2.9040    3.5040 h1        1 M0A      0.081700
     45 H18         4.4300   -3.3540    0.4200 ha        1 M0A      0.139000
     46 H19         6.8250   -1.8950    3.7240 ha        1 M0A      0.185000
     47 H20         8.8850   -2.7090    2.5910 ha        1 M0A      0.167000
     48 H21         8.7400   -3.8500    0.3800 ha        1 M0A      0.137000
     49 H22         7.3460   -4.0340   -1.7110 hx        1 M0A      0.113200
     50 H23         5.5150   -4.1070   -1.5700 hx        1 M0A      0.113200
     51 H24         5.7690   -6.1890   -0.3600 hn        1 M0A      0.457800
     52 H25         6.5370   -6.2920   -1.8400 hn        1 M0A      0.457800
     53 HBA3        7.4260   -6.1100   -0.4370 hn        1 M0A      0.457800
@<TRIPOS>BOND
     1    1    2 1   
     2    1   28 1   
     3    1   29 1   
     4    1   30 1   
     5    2    3 1   
     6    2   31 1   
     7    2   32 1   
     8    3    4 1   
     9    3   33 1   
    10    3   34 1   
    11    4    5 1   
    12    4   35 1   
    13    4   36 1   
    14    5    6 2   
    15    5   18 1   
    16    6    7 1   
    17    7    8 ar  
    18    7   17 ar  
    19    8    9 1   
    20    8   10 ar  
    21    9   37 1   
    22    9   38 1   
    23   10   11 ar  
    24   11   12 ar  
    25   11   16 ar  
    26   12   13 ar  
    27   12   39 1   
    28   13   14 ar  
    29   13   40 1   
    30   14   15 ar  
    31   14   41 1   
    32   15   16 ar  
    33   15   42 1   
    34   16   17 ar  
    35   17   18 1   
    36   18   19 1   
    37   19   20 1   
    38   19   43 1   
    39   19   44 1   
    40   20   21 ar  
    41   20   22 ar  
    42   21   25 ar  
    43   21   45 1   
    44   22   23 ar  
    45   22   46 1   
    46   23   24 ar  
    47   23   47 1   
    48   24   25 ar  
    49   24   48 1   
    50   25   26 1   
    51   26   27 1   
    52   26   49 1   
    53   26   50 1   
    54   27   51 1   
    55   27   52 1   
    56   27   53 1   
@<TRIPOS>SUBSTRUCTURE
     1 M0A         1 TEMP              0 ****  ****    0 ROOT
