@<TRIPOS>MOLECULE
M0N
   28    29     1     0     0
SMALL
bcc


@<TRIPOS>ATOM
      1 O           0.6970   -0.8710   -0.9290 oh        1 M0N     -0.650800
      2 C9          1.6480   -0.0440   -0.2890 c3        1 M0N     -0.246600
      3 C8          1.6800   -0.1820    1.2210 c3        1 M0N     -0.029200
      4 C2          0.8060   -1.1900    1.8920 cc        1 M0N     -0.057300
      5 C1          0.5590   -2.5290    1.5060 cd        1 M0N     -0.052400
      6 N1         -0.2480   -3.2070    2.4160 nd        1 M0N     -0.705300
      7 C7         -0.5060   -2.3010    3.4010 cc        1 M0N      0.338100
      8 C6         -1.2690   -2.4530    4.6050 ce        1 M0N     -0.357600
      9 C5         -1.3400   -1.3950    5.4820 cf        1 M0N     -0.111000
     10 C4         -0.6730   -0.1900    5.2000 cf        1 M0N     -0.467100
     11 C3          0.0730    0.0040    4.0210 c1        1 M0N     -0.096900
     12 N2          0.1370   -1.0260    3.1320 na        1 M0N     -0.057700
     13 P1          1.0720    1.5190   -0.6950 p5        1 M0N      1.415600
     14 O2         -0.4620    1.4840   -0.0230 oh        1 M0N     -0.811400
     15 O3          1.7480    2.6340    0.0390 o         1 M0N     -0.920500
     16 O1          0.7520    1.8290   -2.1220 o         1 M0N     -0.920500
     17 P2          3.3440   -1.0620   -0.7870 p5        1 M0N      1.207700
     18 O5          2.8000   -2.4760   -0.8120 o         1 M0N     -0.931167
     19 O6          4.3660   -0.8320    0.2960 o         1 M0N     -0.931167
     20 O4          3.8140   -0.5900   -2.1350 o         1 M0N     -0.931167
     21 HO          1.0310   -1.7840   -0.9480 ho        1 M0N      0.408000
     22 H81         2.7360   -0.4510    1.5420 hc        1 M0N      0.071700
     23 H82         1.4670    0.8320    1.6730 hc        1 M0N      0.071700
     24 H1          0.9770   -3.0180    0.6190 h4        1 M0N      0.207000
     25 H6         -1.7690   -3.4080    4.7920 ha        1 M0N      0.067000
     26 H5         -1.9240   -1.5000    6.4110 ha        1 M0N      0.023000
     27 H4         -0.7290    0.6410    5.9090 ha        1 M0N      0.065000
     28 H3         -0.6390    0.6590    0.4100 ho        1 M0N      0.403000
@<TRIPOS>BOND
     1    1    2 1   
     2    1   21 1   
     3    2    3 1   
     4    2   13 1   
     5    2   17 1   
     6    3    4 1   
     7    3   22 1   
     8    3   23 1   
     9    4    5 2   
    10    4   12 1   
    11    5    6 1   
    12    5   24 1   
    13    6    7 2   
    14    7    8 1   
    15    7   12 1   
    16    8    9 2   
    17    8   25 1   
    18    9   10 1   
    19    9   26 1   
    20   10   11 2   
    21   10   27 1   
    22   11   12 2   
    23   13   14 1   
    24   13   15 1   
    25   13   16 1   
    26   14   28 1   
    27   17   18 1   
    28   17   19 1   
    29   17   20 1   
@<TRIPOS>SUBSTRUCTURE
     1 M0N         1 TEMP              0 ****  ****    0 ROOT
