@<TRIPOS>MOLECULE
molecule
   28    29     1     0     0
SMALL
bcc


@<TRIPOS>ATOM
      1 O            0.0000     0.0000     0.0000 oh         1 M0N      -0.675800
      2 C9           1.4270     0.0000     0.0000 c3         1 M0N      -0.084600
      3 C8           1.9340     0.0000     1.4620 c3         1 M0N       0.021800
      4 C2           1.5000    -1.1820     2.2960 cc         1 M0N      -0.026300
      5 C1           2.1040    -2.3780     2.4790 cd         1 M0N       0.002600
      6 N1           1.3580    -3.1610     3.3220 nd         1 M0N      -0.329600
      7 C7           0.3100    -2.4280     3.6410 cc         1 M0N      -0.131300
      8 C6          -0.8120    -2.6920     4.4790 cc         1 M0N      -0.095000
      9 C5          -1.7620    -1.7490     4.6370 cd         1 M0N      -0.197000
     10 C4          -1.6730    -0.4600     3.9720 cd         1 M0N      -0.291000
     11 C3          -0.6180    -0.2040     3.1800 cc         1 M0N       0.050700
     12 N2           0.3590    -1.1820     3.0210 na         1 M0N       0.025700
     13 P1           1.8310     1.6490    -0.7350 p5         1 M0N       1.071700
     14 O2           0.9080     2.6870     0.0920 o          1 M0N      -0.929833
     15 O3           3.2980     1.9620    -0.7450 o          1 M0N      -0.929833
     16 O1           1.1280     1.6080    -2.1900 o          1 M0N      -0.929833
     17 P2           1.8500    -1.5250    -0.9160 p5         1 M0N       1.071700
     18 O5           1.3630    -1.2050    -2.4240 o          1 M0N      -0.929833
     19 O6           1.3040    -2.7990    -0.3450 o          1 M0N      -0.929833
     20 O4           3.4600    -1.4490    -1.0310 o          1 M0N      -0.929833
     21 HO          -0.3140    -0.0820    -0.8850 ho         1 M0N       0.422000
     22 H81          3.0170     0.0240     1.4450 hc         1 M0N       0.040200
     23 H82          1.5800     0.9030     1.9440 hc         1 M0N       0.040200
     24 H1           3.0420    -2.6740     2.0260 h4         1 M0N       0.196000
     25 H6          -0.9020    -3.6450     4.9860 ha         1 M0N       0.088000
     26 H5          -2.6120    -1.9570     5.2760 ha         1 M0N       0.062000
     27 H4          -2.4470     0.2850     4.1120 ha         1 M0N       0.101000
     28 H3          -0.5300     0.7490     2.6740 h4         1 M0N       0.215000
@<TRIPOS>BOND
     1     1     2 1
     2     1    21 1
     3     2    17 1
     4     2     3 1
     5     2    13 1
     6     3     4 1
     7     3    22 1
     8     3    23 1
     9     4     5 2
    10     4    12 1
    11     5     6 1
    12     5    24 1
    13     6     7 2
    14     7    12 1
    15     7     8 1
    16     8     9 2
    17     8    25 1
    18     9    10 1
    19     9    26 1
    20    10    11 2
    21    10    27 1
    22    11    12 1
    23    11    28 1
    24    13    15 1
    25    13    16 1
    26    13    14 1
    27    17    19 1
    28    17    18 1
    29    17    20 1
@<TRIPOS>SUBSTRUCTURE
     1 M0N         1 TEMP              0 ****  ****    0 ROOT
