@<TRIPOS>MOLECULE
molecule
   54    57     1     0     0
SMALL
bcc


@<TRIPOS>ATOM
      1 N1           0.0000     0.0000     0.0000 ns         1 M0T      -0.579900
      2 N3          -5.1790    -3.3330     0.2880 nc         1 M0T      -0.589100
      3 C4          -0.6730    -1.1640     0.1010 c          1 M0T       0.680700
      4 C5          -2.1510    -1.1640     0.1010 ca         1 M0T      -0.171600
      5 C6          -2.8490     0.0450    -0.0050 ca         1 M0T      -0.095000
      6 C7          -4.2140     0.0580    -0.0070 ca         1 M0T      -0.137000
      7 C8          -4.9230    -1.1340     0.0980 ca         1 M0T      -0.075200
      8 C20          1.9670     1.2310    -0.7090 ca         1 M0T      -0.096300
      9 C21          3.0620     1.1470    -1.5490 ca         1 M0T      -0.122500
     10 C22          3.5220     2.2760    -2.2000 ca         1 M0T      -0.124000
     11 C24          1.7910     3.5730    -1.1740 ca         1 M0T      -0.124000
     12 O1          -0.0650    -2.2120     0.1930 o          1 M0T      -0.612100
     13 C2           1.9750     0.0000     1.4430 c3         1 M0T      -0.091400
     14 N2          -6.2650    -1.4470     0.1250 na         1 M0T      -0.152300
     15 C3           1.4650     0.0000     0.0000 c3         1 M0T       0.164000
     16 C9          -7.3790    -0.5000     0.0410 c3         1 M0T       0.099600
     17 C16         -6.3640    -2.7990     0.2420 cd         1 M0T       0.426800
     18 C18         -4.2370    -2.3570     0.2040 ca         1 M0T       0.083400
     19 C19         -2.8430    -2.3670     0.2050 ca         1 M0T       0.002000
     20 C23          2.8870     3.4890    -2.0130 ca         1 M0T      -0.127000
     21 C25          1.3360     2.4450    -0.5170 ca         1 M0T      -0.122500
     22 C10         -7.7610    -0.2980    -1.4030 ca         1 M0T      -0.113300
     23 C13         -8.4610     0.0730    -4.0530 ca         1 M0T       0.039400
     24 C15         -8.7130    -1.1130    -1.9850 ca         1 M0T      -0.099000
     25 Cl1         -8.8990     0.3050    -5.7160 cl         1 M0T      -0.077400
     26 C11         -7.1620     0.7050    -2.1420 ca         1 M0T      -0.098000
     27 C12         -7.5110     0.8910    -3.4660 ca         1 M0T      -0.111000
     28 C14         -9.0640    -0.9290    -3.3110 ca         1 M0T       0.029400
     29 HN1         -0.5000     0.8580    -0.1210 hn         1 M0T       0.315500
     30 H6          -2.3030     0.9770    -0.0860 ha         1 M0T       0.126000
     31 H7          -4.7460     0.9980    -0.0890 ha         1 M0T       0.123000
     32 H17         -8.3950    -2.9880     0.8540 hc         1 M0T       0.060033
     33 H17A        -7.4950    -4.5100     0.8170 hc         1 M0T       0.060033
     34 H17B        -8.0200    -3.7550    -0.6950 hc         1 M0T       0.060033
     35 H21          3.5600     0.1960    -1.6950 ha         1 M0T       0.130000
     36 H22          4.3810     2.2100    -2.8570 ha         1 M0T       0.130500
     37 H24          1.2950     4.5240    -1.0260 ha         1 M0T       0.130500
     38 H1           2.1540    -1.4380     3.0300 hc         1 M0T       0.042033
     39 H1A          1.7530    -2.1370     1.4550 hc         1 M0T       0.042033
     40 H1B          0.5170    -1.2720     2.3790 hc         1 M0T       0.042033
     41 H2           1.5420     0.8360     1.9790 hc         1 M0T       0.045200
     42 H2A          3.0540     0.0890     1.4450 hc         1 M0T       0.045200
     43 H3           1.8260    -0.8840    -0.5110 h1         1 M0T       0.085700
     44 H9          -8.2290    -0.8920     0.5880 h1         1 M0T       0.071200
     45 H9A         -7.0800     0.4490     0.4710 h1         1 M0T       0.071200
     46 H19         -2.3080    -3.3070     0.1470 ha         1 M0T       0.172000
     47 H23          3.2460     4.3730    -2.5260 ha         1 M0T       0.131000
     48 H25          0.4770     2.5110     0.1400 ha         1 M0T       0.130000
     49 H15         -9.1850    -1.8960    -1.4040 ha         1 M0T       0.149000
     50 H11         -6.4180     1.3460    -1.6830 ha         1 M0T       0.142000
     51 H12         -7.0410     1.6770    -4.0450 ha         1 M0T       0.155000
     52 C17         -7.6600    -3.5670     0.3090 c3         1 M0T      -0.097400
     53 C1           1.5700    -1.3070     2.1270 c3         1 M0T      -0.092100
     54 Cl2        -10.2550    -1.9560    -4.0450 cl         1 M0T      -0.078400
@<TRIPOS>BOND
     1     1     3 1
     2     1    15 1
     3     2    17 2
     4     2    18 1
     5     3     4 1
     6     3    12 2
     7     4     5 ar
     8     4    19 ar
     9     5     6 ar
    10     6     7 ar
    11     7    14 1
    12     7    18 ar
    13    52    17 1
    14     8     9 ar
    15     8    15 1
    16     8    21 ar
    17     9    10 ar
    18    10    20 ar
    19    11    20 ar
    20    11    21 ar
    21    53    13 1
    22    13    15 1
    23    14    16 1
    24    14    17 1
    25    16    22 1
    26    18    19 ar
    27    22    24 ar
    28    22    26 ar
    29    23    25 1
    30    23    27 ar
    31    23    28 ar
    32    24    28 ar
    33    54    28 1
    34    26    27 ar
    35     1    29 1
    36     5    30 1
    37     6    31 1
    38    52    32 1
    39    52    33 1
    40    52    34 1
    41     9    35 1
    42    10    36 1
    43    11    37 1
    44    53    38 1
    45    53    39 1
    46    53    40 1
    47    13    41 1
    48    13    42 1
    49    15    43 1
    50    16    44 1
    51    16    45 1
    52    19    46 1
    53    20    47 1
    54    21    48 1
    55    24    49 1
    56    26    50 1
    57    27    51 1
@<TRIPOS>SUBSTRUCTURE
     1 M0T         1 TEMP              0 ****  ****    0 ROOT
