@<TRIPOS>MOLECULE
M0T
   54    57     1     0     0
SMALL
bcc


@<TRIPOS>ATOM
      1 N1           0.0000     0.0000     0.0000 ns         1 M0T      -0.204900
      2 N3          -5.1790    -3.3330     0.2880 nc         1 M0T      -0.503100
      3 C4          -0.6730    -1.1640     0.1010 c          1 M0T       0.606700
      4 C5          -2.1510    -1.1640     0.1010 ca         1 M0T      -0.185600
      5 C6          -2.8490     0.0450    -0.0050 ca         1 M0T      -0.077000
      6 C7          -4.2140     0.0580    -0.0070 ca         1 M0T      -0.099000
      7 C8          -4.9230    -1.1340     0.0980 ca         1 M0T      -0.244200
      8 C20          1.9670     1.2310    -0.7090 ca         1 M0T      -0.105300
      9 C21          3.0620     1.1470    -1.5490 ca         1 M0T      -0.095500
     10 C22          3.5220     2.2760    -2.2000 ca         1 M0T      -0.096000
     11 C24          1.7910     3.5730    -1.1740 ca         1 M0T      -0.096000
     12 O1          -0.0650    -2.2120     0.1930 o          1 M0T      -0.652100
     13 C2           1.9750     0.0000     1.4430 c3         1 M0T      -0.037400
     14 N2          -6.2650    -1.4470     0.1250 na         1 M0T       0.312700
     15 C3           1.4650     0.0000     0.0000 c3         1 M0T       0.079000
     16 C9          -7.3790    -0.5000     0.0410 c3         1 M0T       0.025600
     17 C16         -6.3640    -2.7990     0.2420 cd         1 M0T       0.219800
     18 C18         -4.2370    -2.3570     0.2040 ca         1 M0T       0.050400
     19 C19         -2.8430    -2.3670     0.2050 ca         1 M0T       0.043000
     20 C23          2.8870     3.4890    -2.0130 ca         1 M0T      -0.099000
     21 C25          1.3360     2.4450    -0.5170 ca         1 M0T      -0.095500
     22 C10         -7.7610    -0.2980    -1.4030 ca         1 M0T      -0.124300
     23 C13         -8.4610     0.0730    -4.0530 ca         1 M0T      -0.032600
     24 C15         -8.7130    -1.1130    -1.9850 ca         1 M0T      -0.076000
     25 Cl1         -8.8990     0.3050    -5.7160 cl         1 M0T       0.007600
     26 C11         -7.1620     0.7050    -2.1420 ca         1 M0T      -0.072000
     27 C12         -7.5110     0.8910    -3.4660 ca         1 M0T      -0.085000
     28 C14         -9.0640    -0.9290    -3.3110 ca         1 M0T      -0.040600
     29 HN1         -0.5000     0.8580    -0.1210 hn         1 M0T       0.185500
     30 H6          -2.3030     0.9770    -0.0860 ha         1 M0T       0.101000
     31 H7          -4.7460     0.9980    -0.0890 ha         1 M0T       0.100000
     32 H17         -8.3950    -2.9880     0.8540 hc         1 M0T       0.017367
     33 H17A        -7.4950    -4.5100     0.8170 hc         1 M0T       0.017367
     34 H17B        -8.0200    -3.7550    -0.6950 hc         1 M0T       0.017367
     35 H21          3.5600     0.1960    -1.6950 ha         1 M0T       0.106500
     36 H22          4.3810     2.2100    -2.8570 ha         1 M0T       0.103000
     37 H24          1.2950     4.5240    -1.0260 ha         1 M0T       0.103000
     38 H1           2.1540    -1.4380     3.0300 hc         1 M0T       0.014700
     39 H1A          1.7530    -2.1370     1.4550 hc         1 M0T       0.014700
     40 H1B          0.5170    -1.2720     2.3790 hc         1 M0T       0.014700
     41 H2           1.5420     0.8360     1.9790 hc         1 M0T       0.016200
     42 H2A          3.0540     0.0890     1.4450 hc         1 M0T       0.016200
     43 H3           1.8260    -0.8840    -0.5110 h1         1 M0T       0.061700
     44 H9          -8.2290    -0.8920     0.5880 h1         1 M0T       0.041200
     45 H9A         -7.0800     0.4490     0.4710 h1         1 M0T       0.041200
     46 H19         -2.3080    -3.3070     0.1470 ha         1 M0T       0.135000
     47 H23          3.2460     4.3730    -2.5260 ha         1 M0T       0.103000
     48 H25          0.4770     2.5110     0.1400 ha         1 M0T       0.106500
     49 H15         -9.1850    -1.8960    -1.4040 ha         1 M0T       0.122000
     50 H11         -6.4180     1.3460    -1.6830 ha         1 M0T       0.113000
     51 H12         -7.0410     1.6770    -4.0450 ha         1 M0T       0.121000
     52 C17         -7.6600    -3.5670     0.3090 c3         1 M0T       0.010600
     53 C1           1.5700    -1.3070     2.1270 c3         1 M0T      -0.016100
     54 Cl2        -10.2550    -1.9560    -4.0450 cl         1 M0T       0.007600
@<TRIPOS>BOND
     1     1     3 1   
     2     1    15 1   
     3     1    29 1   
     4     2    17 2   
     5     2    18 1   
     6     3     4 1   
     7     3    12 2   
     8     4     5 ar  
     9     4    19 ar  
    10     5     6 ar  
    11     5    30 1   
    12     6     7 ar  
    13     6    31 1   
    14     7    14 1   
    15     7    18 ar  
    16     8     9 ar  
    17     8    15 1   
    18     8    21 ar  
    19     9    10 ar  
    20     9    35 1   
    21    10    20 ar  
    22    10    36 1   
    23    11    20 ar  
    24    11    21 ar  
    25    11    37 1   
    26    13    15 1   
    27    13    41 1   
    28    13    42 1   
    29    13    53 1   
    30    14    16 1   
    31    14    17 1   
    32    15    43 1   
    33    16    22 1   
    34    16    44 1   
    35    16    45 1   
    36    17    52 1   
    37    18    19 ar  
    38    19    46 1   
    39    20    47 1   
    40    21    48 1   
    41    22    24 ar  
    42    22    26 ar  
    43    23    25 1   
    44    23    27 ar  
    45    23    28 ar  
    46    24    28 ar  
    47    24    49 1   
    48    26    27 ar  
    49    26    50 1   
    50    27    51 1   
    51    28    54 1   
    52    32    52 1   
    53    33    52 1   
    54    34    52 1   
    55    38    53 1   
    56    39    53 1   
    57    40    53 1   
@<TRIPOS>SUBSTRUCTURE
     1 M0T         1 TEMP              0 ****  ****    0 ROOT
