@<TRIPOS>MOLECULE
molecule
   37    39     1     0     0
SMALL
bcc


@<TRIPOS>ATOM
      1 C1           0.0000     0.0000     0.0000 ca         1 M0Y      -0.112000
      2 C2           1.3930     0.0000     0.0000 ca         1 M0Y      -0.077000
      3 C3           2.0940     0.0000     1.1680 ca         1 M0Y      -0.160000
      4 C4           1.4070     0.0010     2.3910 ca         1 M0Y      -0.004000
      5 C5          -0.0100     0.0010     2.3920 ca         1 M0Y      -0.039000
      6 C6          -0.7000     0.0050     1.1680 ca         1 M0Y      -0.081000
      7 C7          -0.7000     0.0060     3.6170 ca         1 M0Y      -0.037000
      8 C8          -0.0070     0.0000     4.7880 ca         1 M0Y      -0.137000
      9 C9           1.3850    -0.0100     4.7980 ca         1 M0Y      -0.062000
     10 C10          2.0990    -0.0000     3.6200 ca         1 M0Y      -0.092200
     11 N1           3.4960    -0.0100     3.6430 na         1 M0Y       0.333300
     12 C11          4.2590    -0.8540     4.3910 cc         1 M0Y      -0.129300
     13 C12          5.5580    -0.5500     4.1360 cd         1 M0Y      -0.087700
     14 C13          5.5210     0.5160     3.1990 cd         1 M0Y       0.162800
     15 N2           4.2490     0.7720     2.9540 nc         1 M0Y      -0.463800
     16 C14          6.6820     1.2030     2.6060 c          1 M0Y       0.474600
     17 O1           7.8100     0.8650     2.9130 o          1 M0Y      -0.464100
     18 N3           6.4960     2.2030     1.7240 nz         1 M0Y      -0.672400
     19 N4           6.6980    -1.1600     4.6840 ns         1 M0Y      -0.410100
     20 C15          6.5630    -2.1690     5.5680 c          1 M0Y       0.597100
     21 O2           5.4540    -2.5490     5.8920 o          1 M0Y      -0.484100
     22 N5           7.6560    -2.7550     6.0930 nz         1 M0Y      -0.667400
     23 H1          -0.5340    -0.0000    -0.9430 ha         1 M0Y       0.160000
     24 H2           1.9270    -0.0040    -0.9430 ha         1 M0Y       0.142000
     25 H3           3.1770    -0.0000     1.1530 ha         1 M0Y       0.113000
     26 H4          -1.7830     0.0050     1.1540 ha         1 M0Y       0.162000
     27 H5          -1.7830     0.0140     3.6280 ha         1 M0Y       0.167000
     28 H6          -0.5470    -0.0070     5.7270 ha         1 M0Y       0.166000
     29 H7           1.9130    -0.0140     5.7440 ha         1 M0Y       0.141000
     30 H8           3.8970    -1.6230     5.0630 h4         1 M0Y       0.243000
     31 H9           7.3790     2.6130     1.4920 hn         1 M0Y       0.492467
     32 H10          6.0680     1.8410     0.8940 hn         1 M0Y       0.492467
     33 H11          7.6090    -0.8220     4.4470 hn         1 M0Y       0.362500
     34 H12          8.2090    -3.1490     5.3580 hn         1 M0Y       0.492133
     35 H13          7.3760    -3.4800     6.7240 hn         1 M0Y       0.492133
     36 H33          5.9100     2.9040     2.1330 hn         1 M0Y       0.492467
     37 H53          8.1840    -2.0780     6.6070 hn         1 M0Y       0.492133
@<TRIPOS>BOND
     1     8     7 ar
     2     8     9 ar
     3     7     5 ar
     4     9    10 ar
     5     5     6 ar
     6     5     4 ar
     7     6     1 ar
     8    10     4 ar
     9    10    11 1
    10     4     3 ar
    11    15    11 1
    12    15    14 2
    13    11    12 1
    14     1     2 ar
    15    18    16 1
    16     3     2 ar
    17    14    16 1
    18    14    13 1
    19    12    13 2
    20    16    17 2
    21    13    19 1
    22    19    20 1
    23    21    20 2
    24    20    22 1
    25     1    23 1
    26     2    24 1
    27     3    25 1
    28     6    26 1
    29     7    27 1
    30     8    28 1
    31     9    29 1
    32    12    30 1
    33    18    31 1
    34    18    32 1
    35    19    33 1
    36    22    34 1
    37    22    35 1
    38    36    18 1
    39    37    22 1
@<TRIPOS>SUBSTRUCTURE
     1 M0Y         1 TEMP              0 ****  ****    0 ROOT
