@<TRIPOS>MOLECULE
molecule
   41    43     1     0     0
SMALL
bcc


@<TRIPOS>ATOM
      1 N1           0.0000     0.0000     0.0000 na         1 M0Z       0.336300
      2 N2           1.2850     0.0000     0.0000 nc         1 M0Z      -0.452800
      3 C1           1.7420     0.0000     1.2380 cd         1 M0Z       0.161800
      4 C2           0.6140    -0.0010     2.0990 cd         1 M0Z      -0.089700
      5 C3          -0.4690     0.0000     1.2780 cc         1 M0Z      -0.132300
      6 N3           0.6160    -0.0020     3.5040 ns         1 M0Z      -0.409100
      7 C4          -0.5500    -0.0020     4.1790 c          1 M0Z       0.596100
      8 N4          -0.5480    -0.0030     5.5260 nz         1 M0Z      -0.667400
      9 O1          -1.6040    -0.0010     3.5720 o          1 M0Z      -0.484100
     10 C5           3.1590    -0.0010     1.6490 c          1 M0Z       0.475600
     11 N5           4.1310    -0.0010     0.7160 nz         1 M0Z      -0.672400
     12 O2           3.4480    -0.0020     2.8300 o          1 M0Z      -0.467100
     13 C6          -0.8010     0.0060    -1.1460 ca         1 M0Z      -0.104200
     14 C7          -1.8440     0.8990    -1.2610 ca         1 M0Z      -0.053000
     15 C8          -2.6460     0.9130    -2.3980 ca         1 M0Z      -0.150000
     16 C9          -2.4240     0.0480    -3.4260 ca         1 M0Z      -0.026000
     17 C10         -0.5440    -0.8990    -2.1980 ca         1 M0Z       0.055000
     18 C11         -1.3710    -0.8790    -3.3480 ca         1 M0Z      -0.075000
     19 C12         -1.1160    -1.7790    -4.3980 ca         1 M0Z      -0.060000
     20 C13         -0.0820    -2.6570    -4.2980 ca         1 M0Z      -0.210000
     21 C14          0.7350    -2.6780    -3.1640 ca         1 M0Z       0.200100
     22 C15          0.5120    -1.8210    -2.1230 ca         1 M0Z      -0.232000
     23 O3           1.7600    -3.5670    -3.0920 os         1 M0Z      -0.339900
     24 C16          1.9400    -4.4420    -4.2070 c3         1 M0Z       0.125700
     25 H1          -1.4970    -0.1610     1.5790 h4         1 M0Z       0.242000
     26 H2           1.4830    -0.0160     4.0030 hn         1 M0Z       0.361500
     27 H4          -1.4910     0.0370     5.8610 hn         1 M0Z       0.491800
     28 H3          -0.1110    -0.8390     5.8580 hn         1 M0Z       0.491800
     29 H5           5.0180     0.1390     1.1590 hn         1 M0Z       0.492467
     30 H6           3.9650     0.7380     0.0620 hn         1 M0Z       0.492467
     31 H7          -2.0420     1.5980    -0.4580 ha         1 M0Z       0.143000
     32 H8          -3.4600     1.6240    -2.4660 ha         1 M0Z       0.165000
     33 H9          -3.0590     0.0740    -4.3030 ha         1 M0Z       0.165000
     34 H10         -1.7180    -1.7940    -5.2980 ha         1 M0Z       0.161000
     35 H11         -0.1450    -3.2000    -5.2340 ha         1 M0Z       0.170000
     36 H12          1.1100    -2.2230    -1.3140 ha         1 M0Z       0.145000
     37 H14          1.0470    -5.0400    -4.3450 h1         1 M0Z       0.057033
     38 H13          2.7860    -5.0940    -4.0230 h1         1 M0Z       0.057033
     39 H15          2.1230    -3.8570    -5.1000 h1         1 M0Z       0.057033
     40 H43         -0.0500     0.7990     5.8600 hn         1 M0Z       0.491800
     41 H53          4.1490    -0.8880     0.2530 hn         1 M0Z       0.492467
@<TRIPOS>BOND
     1    11    10 1
     2    12    10 2
     3    10     3 1
     4     3     2 2
     5     3     4 1
     6     8     7 1
     7     6     4 1
     8     6     7 1
     9     2     1 1
    10     4     5 2
    11     7     9 2
    12    24    23 1
    13     1     5 1
    14     1    13 1
    15    23    21 1
    16    22    21 ar
    17    22    17 ar
    18    21    20 ar
    19    13    17 ar
    20    13    14 ar
    21    17    18 ar
    22    14    15 ar
    23    20    19 ar
    24    18    19 ar
    25    18    16 ar
    26    15    16 ar
    27     5    25 1
    28     6    26 1
    29     8    27 1
    30     8    28 1
    31    11    29 1
    32    11    30 1
    33    14    31 1
    34    15    32 1
    35    16    33 1
    36    19    34 1
    37    20    35 1
    38    22    36 1
    39    24    37 1
    40    24    38 1
    41    24    39 1
    42    40     8 1
    43    41    11 1
@<TRIPOS>SUBSTRUCTURE
     1 M0Z         1 TEMP              0 ****  ****    0 ROOT
