@<TRIPOS>MOLECULE
M0Z
   41    43     1     0     0
SMALL
bcc


@<TRIPOS>ATOM
      1 N1           0.0000     0.0000     0.0000 na         1 M0Z       0.927300
      2 N2           1.2850     0.0000     0.0000 nc         1 M0Z      -0.610800
      3 C1           1.7420     0.0000     1.2380 cd         1 M0Z       0.135800
      4 C2           0.6140    -0.0010     2.0990 cd         1 M0Z      -0.219700
      5 C3          -0.4690     0.0000     1.2780 cc         1 M0Z      -0.337300
      6 N3           0.6160    -0.0020     3.5040 ns         1 M0Z       0.101900
      7 C4          -0.5500    -0.0020     4.1790 c          1 M0Z       0.273100
      8 N4          -0.5480    -0.0030     5.5260 nz         1 M0Z       0.226600
      9 O1          -1.6040    -0.0010     3.5720 o          1 M0Z      -0.521100
     10 C5           3.1590    -0.0010     1.6490 c          1 M0Z       0.325600
     11 N5           4.1310    -0.0010     0.7160 nz         1 M0Z       0.217600
     12 O2           3.4480    -0.0020     2.8300 o          1 M0Z      -0.501100
     13 C6          -0.8010     0.0060    -1.1460 ca         1 M0Z      -0.345200
     14 C7          -1.8440     0.8990    -1.2610 ca         1 M0Z       0.012000
     15 C8          -2.6460     0.9130    -2.3980 ca         1 M0Z      -0.137000
     16 C9          -2.4240     0.0480    -3.4260 ca         1 M0Z       0.037000
     17 C10         -0.5440    -0.8990    -2.1980 ca         1 M0Z       0.091000
     18 C11         -1.3710    -0.8790    -3.3480 ca         1 M0Z      -0.092000
     19 C12         -1.1160    -1.7790    -4.3980 ca         1 M0Z      -0.016000
     20 C13         -0.0820    -2.6570    -4.2980 ca         1 M0Z      -0.198000
     21 C14          0.7350    -2.6780    -3.1640 ca         1 M0Z       0.230100
     22 C15          0.5120    -1.8210    -2.1230 ca         1 M0Z      -0.249000
     23 O3           1.7600    -3.5670    -3.0920 os         1 M0Z      -0.321900
     24 C16          1.9400    -4.4420    -4.2070 c3         1 M0Z       0.247700
     25 H1          -1.4970    -0.1610     1.5790 h4         1 M0Z       0.219000
     26 H2           1.4830    -0.0160     4.0030 hn         1 M0Z       0.191500
     27 H4          -1.4910     0.0370     5.8610 hn         1 M0Z       0.250800
     28 H3          -0.1110    -0.8390     5.8580 hn         1 M0Z       0.250800
     29 H5           5.0180     0.1390     1.1590 hn         1 M0Z       0.255800
     30 H6           3.9650     0.7380     0.0620 hn         1 M0Z       0.255800
     31 H7          -2.0420     1.5980    -0.4580 ha         1 M0Z       0.108000
     32 H8          -3.4600     1.6240    -2.4660 ha         1 M0Z       0.133000
     33 H9          -3.0590     0.0740    -4.3030 ha         1 M0Z       0.126000
     34 H10         -1.7180    -1.7940    -5.2980 ha         1 M0Z       0.126000
     35 H11         -0.1450    -3.2000    -5.2340 ha         1 M0Z       0.149000
     36 H12          1.1100    -2.2230    -1.3140 ha         1 M0Z       0.124000
     37 H14          1.0470    -5.0400    -4.3450 h1         1 M0Z       0.010033
     38 H13          2.7860    -5.0940    -4.0230 h1         1 M0Z       0.010033
     39 H15          2.1230    -3.8570    -5.1000 h1         1 M0Z       0.010033
     40 H43         -0.0500     0.7990     5.8600 hn         1 M0Z       0.250800
     41 H53          4.1490    -0.8880     0.2530 hn         1 M0Z       0.255800
@<TRIPOS>BOND
     1     1     2 1   
     2     1     5 1   
     3     1    13 1   
     4     2     3 2   
     5     3     4 1   
     6     3    10 1   
     7     4     5 2   
     8     4     6 1   
     9     5    25 1   
    10     6     7 1   
    11     6    26 1   
    12     7     8 1   
    13     7     9 2   
    14     8    27 1   
    15     8    28 1   
    16     8    40 1   
    17    10    11 1   
    18    10    12 2   
    19    11    29 1   
    20    11    30 1   
    21    11    41 1   
    22    13    14 ar  
    23    13    17 ar  
    24    14    15 ar  
    25    14    31 1   
    26    15    16 ar  
    27    15    32 1   
    28    16    18 ar  
    29    16    33 1   
    30    17    18 ar  
    31    17    22 ar  
    32    18    19 ar  
    33    19    20 ar  
    34    19    34 1   
    35    20    21 ar  
    36    20    35 1   
    37    21    22 ar  
    38    21    23 1   
    39    22    36 1   
    40    23    24 1   
    41    24    37 1   
    42    24    38 1   
    43    24    39 1   
@<TRIPOS>SUBSTRUCTURE
     1 M0Z         1 TEMP              0 ****  ****    0 ROOT
