@<TRIPOS>MOLECULE
molecule
   50    49     1     0     0
SMALL
bcc


@<TRIPOS>ATOM
      1 O43          0.0000     0.0000     0.0000 o          1 M11      -0.829300
      2 C31          1.2080     0.0000     0.0000 c          1 M11       0.883600
      3 O42          1.8790     0.0060    -1.1630 o          1 M11      -0.829300
      4 C30          1.9610     0.0000     1.3050 c3         1 M11       0.042100
      5 O29          1.0230    -0.1200     2.4060 os         1 M11      -0.401900
      6 C13          0.6720    -1.3620     2.7750 c          1 M11       0.640100
      7 O18          1.2060    -2.3170     2.2650 o          1 M11      -0.564000
      8 C12         -0.3890    -1.5640     3.8260 c3         1 M11       0.085700
      9 S17         -1.0490    -1.5580     6.4810 sh         1 M11      -0.397900
     10 C25          1.2080    -2.6640     5.4020 c3         1 M11      -0.088100
     11 N11         -1.0100    -2.8790     3.6470 ns         1 M11      -0.562900
     12 C10         -2.2630    -3.0980     4.0920 c          1 M11       0.654100
     13 O15         -2.8760    -2.2070     4.6420 o          1 M11      -0.596100
     14 C7          -2.9020    -4.4500     3.9060 c3         1 M11      -0.151400
     15 C4          -4.3150    -4.4330     4.4970 c3         1 M11      -0.085400
     16 C3          -4.9630    -5.8050     4.3080 c3         1 M11      -0.094400
     17 C2          -6.3740    -5.7870     4.8990 c3         1 M11      -0.016500
     18 N14         -6.2950    -5.5910     6.3520 nz         1 M11      -0.790600
     19 C1          -7.0590    -7.0980     4.6060 c          1 M11       0.870600
     20 O20         -7.6030    -7.3160     3.3980 o          1 M11      -0.784300
     21 O19         -7.1170    -7.9520     5.4580 o          1 M11      -0.784300
     22 C32          2.7440     1.3070     1.4430 c3         1 M11      -0.052700
     23 C37          3.3910     1.3720     2.8270 c3         1 M11      -0.082100
     24 C33          3.8320     1.3660     0.3680 c3         1 M11      -0.082100
     25 CAV          0.2490    -1.4870     5.2150 c3         1 M11       0.041400
     26 H30          2.6490    -0.8360     1.3250 h1         1 M11       0.063700
     27 H32          2.0700     2.1470     1.3200 hc         1 M11       0.058700
     28 H12         -1.1430    -0.7920     3.7320 h1         1 M11       0.118700
     29 H11         -0.5250    -3.5970     3.1450 hn         1 M11       0.338500
     30 HAV          0.7960    -0.5570     5.3100 h1         1 M11       0.077700
     31 H17         -0.7910    -0.6660     7.4290 hs         1 M11       0.184800
     32 H251         1.6220    -2.6360     6.4020 hc         1 M11       0.046033
     33 H252         0.6710    -3.5940     5.2590 hc         1 M11       0.046033
     34 H253         2.0100    -2.5950     4.6770 hc         1 M11       0.046033
     35 H7C1        -2.3090    -5.2030     4.4120 hc         1 M11       0.067700
     36 H7C2        -2.9560    -4.6820     2.8490 hc         1 M11       0.067700
     37 H4C1        -4.9080    -3.6800     3.9920 hc         1 M11       0.046700
     38 H4C2        -4.2610    -4.2000     5.5540 hc         1 M11       0.046700
     39 H3C1        -5.0160    -6.0370     3.2510 hc         1 M11       0.082200
     40 H3C2        -4.3690    -6.5580     4.8130 hc         1 M11       0.082200
     41 H2          -6.9410    -4.9770     4.4550 hx         1 M11       0.107700
     42 H141        -5.5710    -6.1700     6.7280 hn         1 M11       0.439133
     43 H142        -6.0910    -4.6310     6.5490 hn         1 M11       0.439133
     44 H371         3.9290     0.4500     3.0180 hc         1 M11       0.029367
     45 H372         4.0810     2.2060     2.8650 hc         1 M11       0.029367
     46 H373         2.6230     1.5040     3.5800 hc         1 M11       0.029367
     47 H331         4.1870     0.3640     0.1580 hc         1 M11       0.029367
     48 H332         3.4230     1.8010    -0.5360 hc         1 M11       0.029367
     49 H333         4.6560     1.9750     0.7210 hc         1 M11       0.029367
     50 H143        -7.1700    -5.8370     6.7700 hn         1 M11       0.439133
@<TRIPOS>BOND
     1     1     2 1
     2     2     3 1
     3     2     4 1
     4     4     5 1
     5     4    22 1
     6     5     6 1
     7     6     7 2
     8     6     8 1
     9     8    11 1
    10     8    25 1
    11     9    25 1
    12    10    25 1
    13    11    12 1
    14    12    13 2
    15    12    14 1
    16    14    15 1
    17    15    16 1
    18    16    17 1
    19    17    18 1
    20    17    19 1
    21    19    20 1
    22    19    21 1
    23    22    23 1
    24    22    24 1
    25     4    26 1
    26    22    27 1
    27     8    28 1
    28    11    29 1
    29    25    30 1
    30     9    31 1
    31    10    32 1
    32    10    33 1
    33    10    34 1
    34    14    35 1
    35    14    36 1
    36    15    37 1
    37    15    38 1
    38    16    39 1
    39    16    40 1
    40    17    41 1
    41    18    42 1
    42    18    43 1
    43    23    44 1
    44    23    45 1
    45    23    46 1
    46    24    47 1
    47    24    48 1
    48    24    49 1
    49    50    18 1
@<TRIPOS>SUBSTRUCTURE
     1 M11         1 TEMP              0 ****  ****    0 ROOT
