@<TRIPOS>MOLECULE
molecule
   37    36     1     0     0
SMALL
bcc


@<TRIPOS>ATOM
      1 C1           0.0000     0.0000     0.0000 c          1 M12       0.891600
      2 O1           1.2080     0.0000     0.0000 o          1 M12      -0.858300
      3 C2          -0.7520     0.0000     1.3060 c3         1 M12      -0.183400
      4 C3           0.2420     0.0010     2.4680 c3         1 M12      -0.063400
      5 C4          -0.5220     0.0020     3.7930 c3         1 M12      -0.088400
      6 C5           0.4740     0.0030     4.9560 c3         1 M12      -0.081400
      7 C6          -0.2910     0.0030     6.2820 c3         1 M12      -0.083400
      8 C7           0.7040     0.0040     7.4430 c3         1 M12      -0.082400
      9 C8          -0.0610     0.0050     8.7700 c3         1 M12      -0.083400
     10 C9           0.9350     0.0060     9.9320 c3         1 M12      -0.076400
     11 C10          0.1710     0.0060    11.2570 c3         1 M12      -0.077700
     12 C11          1.1600    -0.1190    12.4170 c3         1 M12      -0.087100
     13 C12         -0.6130     1.3140    11.3940 c3         1 M12      -0.087100
     14 OXT         -0.6710     0.0050    -1.1610 o          1 M12      -0.858300
     15 H21C        -1.3740    -0.8850     1.3640 hc         1 M12       0.026700
     16 H22C        -1.3760     0.8840     1.3630 hc         1 M12       0.026700
     17 H31C         0.8650     0.8860     2.4100 hc         1 M12       0.044700
     18 H32C         0.8650    -0.8830     2.4110 hc         1 M12       0.044700
     19 H41C        -1.1440     0.8870     3.8500 hc         1 M12       0.028700
     20 H42C        -1.1440    -0.8820     3.8520 hc         1 M12       0.028700
     21 H51C         1.0970    -0.8820     4.8980 hc         1 M12       0.038700
     22 H52C         1.0960     0.8870     4.8980 hc         1 M12       0.038700
     23 H61C        -0.9140     0.8880     6.3390 hc         1 M12       0.036200
     24 H62C        -0.9140    -0.8810     6.3400 hc         1 M12       0.036200
     25 H71C         1.3270     0.8880     7.3850 hc         1 M12       0.038700
     26 H72C         1.3260    -0.8810     7.3860 hc         1 M12       0.038700
     27 H81C        -0.6840    -0.8790     8.8280 hc         1 M12       0.039700
     28 H82C        -0.6830     0.8900     8.8260 hc         1 M12       0.039700
     29 H91C         1.5580    -0.8780     9.8740 hc         1 M12       0.040200
     30 H92C         1.5570     0.8910     9.8740 hc         1 M12       0.040200
     31 H10         -0.5170    -0.8310    11.2770 hc         1 M12       0.047700
     32 H111         0.6180    -0.1340    13.3540 hc         1 M12       0.031200
     33 H112         1.7250    -1.0370    12.3120 hc         1 M12       0.031200
     34 H113         1.8380     0.7260    12.4060 hc         1 M12       0.031200
     35 H121        -0.7840     1.5250    12.4420 hc         1 M12       0.031200
     36 H122        -0.0450     2.1230    10.9500 hc         1 M12       0.031200
     37 H123        -1.5650     1.2200    10.8850 hc         1 M12       0.031200
@<TRIPOS>BOND
     1     1     2 1
     2     1     3 1
     3     1    14 1
     4     3     4 1
     5     4     5 1
     6     5     6 1
     7     6     7 1
     8     7     8 1
     9     8     9 1
    10     9    10 1
    11    10    11 1
    12    11    12 1
    13    11    13 1
    14     3    15 1
    15     3    16 1
    16     4    17 1
    17     4    18 1
    18     5    19 1
    19     5    20 1
    20     6    21 1
    21     6    22 1
    22     7    23 1
    23     7    24 1
    24     8    25 1
    25     8    26 1
    26     9    27 1
    27     9    28 1
    28    10    29 1
    29    10    30 1
    30    11    31 1
    31    12    32 1
    32    12    33 1
    33    12    34 1
    34    13    35 1
    35    13    36 1
    36    13    37 1
@<TRIPOS>SUBSTRUCTURE
     1 M12         1 TEMP              0 ****  ****    0 ROOT
