@<TRIPOS>MOLECULE
M12
   37    36     1     0     0
SMALL
bcc


@<TRIPOS>ATOM
      1 C1          0.0270    0.0470   -0.0590 c         1 M12      0.907600
      2 O1          0.9060    0.9520   -0.1560 o         1 M12     -0.853800
      3 C2         -0.7300   -0.1030    1.2720 c3        1 M12     -0.193400
      4 C3          0.2150   -0.0740    2.4480 c3        1 M12     -0.065400
      5 C4         -0.5250   -0.0370    3.7680 c3        1 M12     -0.078400
      6 C5          0.4320   -0.0260    4.9410 c3        1 M12     -0.078400
      7 C6         -0.3080    0.0190    6.2610 c3        1 M12     -0.078400
      8 C7          0.6520    0.0310    7.4320 c3        1 M12     -0.079400
      9 C8         -0.0890    0.0740    8.7520 c3        1 M12     -0.079400
     10 C9          0.8740    0.0900    9.9200 c3        1 M12     -0.075400
     11 C10         0.1580    0.1010   11.2630 c3        1 M12     -0.068700
     12 C11         1.1120   -0.3120   12.3660 c3        1 M12     -0.088600
     13 C12        -0.4290    1.4640   11.5660 c3        1 M12     -0.088600
     14 OXT        -0.2840   -0.7350   -1.0040 o         1 M12     -0.853800
     15 H21C       -1.4600    0.7430    1.3480 hc        1 M12      0.018700
     16 H22C       -1.3120   -1.0580    1.2620 hc        1 M12      0.018700
     17 H31C        0.8810    0.8250    2.3520 hc        1 M12      0.043700
     18 H32C        0.8770   -0.9790    2.4160 hc        1 M12      0.043700
     19 H41C       -1.2030   -0.9270    3.8450 hc        1 M12      0.025700
     20 H42C       -1.1760    0.8760    3.8070 hc        1 M12      0.025700
     21 H51C        1.0790   -0.9420    4.9040 hc        1 M12      0.036700
     22 H52C        1.1120    0.8620    4.8590 hc        1 M12      0.036700
     23 H61C       -0.9560    0.9340    6.2970 hc        1 M12      0.034200
     24 H62C       -0.9880   -0.8690    6.3410 hc        1 M12      0.034200
     25 H71C        1.3010   -0.8830    7.3940 hc        1 M12      0.037200
     26 H72C        1.3300    0.9210    7.3520 hc        1 M12      0.037200
     27 H81C       -0.7410    0.9860    8.7840 hc        1 M12      0.037200
     28 H82C       -0.7640   -0.8180    8.8320 hc        1 M12      0.037200
     29 H91C        1.5420    0.9890    9.8460 hc        1 M12      0.038700
     30 H92C        1.5330   -0.8170    9.8620 hc        1 M12      0.038700
     31 H10        -0.6830   -0.6480   11.2230 hc        1 M12      0.045700
     32 H111        1.9840    0.3840   12.4100 hc        1 M12      0.030867
     33 H112        1.4930   -1.3460   12.1860 hc        1 M12      0.030867
     34 H113        0.5930   -0.2920   13.3550 hc        1 M12      0.030867
     35 H121       -0.9610    1.4470   12.5470 hc        1 M12      0.030867
     36 H122       -1.1570    1.7610   10.7730 hc        1 M12      0.030867
     37 H123        0.3760    2.2360   11.6140 hc        1 M12      0.030867
@<TRIPOS>BOND
     1    1    2 1   
     2    1    3 1   
     3    1   14 1   
     4    3    4 1   
     5    3   15 1   
     6    3   16 1   
     7    4    5 1   
     8    4   17 1   
     9    4   18 1   
    10    5    6 1   
    11    5   19 1   
    12    5   20 1   
    13    6    7 1   
    14    6   21 1   
    15    6   22 1   
    16    7    8 1   
    17    7   23 1   
    18    7   24 1   
    19    8    9 1   
    20    8   25 1   
    21    8   26 1   
    22    9   10 1   
    23    9   27 1   
    24    9   28 1   
    25   10   11 1   
    26   10   29 1   
    27   10   30 1   
    28   11   12 1   
    29   11   13 1   
    30   11   31 1   
    31   12   32 1   
    32   12   33 1   
    33   12   34 1   
    34   13   35 1   
    35   13   36 1   
    36   13   37 1   
@<TRIPOS>SUBSTRUCTURE
     1 M12         1 TEMP              0 ****  ****    0 ROOT
