@<TRIPOS>MOLECULE
M13
   48    49     1     0     0
SMALL
bcc


@<TRIPOS>ATOM
      1 O10         1.2190    0.5390   -0.3940 oh        1 M13     -0.592800
      2 C12         2.4630   -0.0000   -0.0060 c3        1 M13      0.138400
      3 C11         2.6140    0.0030    1.5170 c3        1 M13      0.075100
      4 O11         1.6320   -0.9120    2.0090 os        1 M13     -0.457600
      5 C7          1.6140   -0.9880    3.4330 c3        1 M13      0.302900
      6 O7          0.6450   -1.9850    3.6630 os        1 M13     -0.406600
      7 CM         -0.6850   -1.5730    3.3690 c3        1 M13      0.120700
      8 C10         4.0190   -0.4550    1.9380 c3        1 M13      0.105100
      9 O9          5.0120    0.4170    1.4510 oh        1 M13     -0.585800
     10 C9          4.0980   -0.6050    3.4670 c3        1 M13      0.082100
     11 C8          2.9550   -1.5030    3.9870 c3        1 M13      0.125100
     12 O8          3.2240   -2.8420    3.6340 oh        1 M13     -0.580800
     13 O1          3.9310    0.6780    4.0810 os        1 M13     -0.451600
     14 C1          5.0660    1.1890    4.7500 c3        1 M13      0.304900
     15 O6          5.6640    2.0950    3.8460 os        1 M13     -0.448600
     16 C2          4.6080    1.8600    6.0600 c3        1 M13      0.087100
     17 O2          5.7290    2.1350    6.8780 oh        1 M13     -0.588800
     18 C3          3.8120    3.1420    5.7860 c3        1 M13      0.075100
     19 O3          3.5440    3.8600    6.9730 oh        1 M13     -0.592800
     20 C4          4.5660    4.0450    4.7910 c3        1 M13      0.090100
     21 O4          3.7740    5.1560    4.4130 oh        1 M13     -0.589800
     22 C5          4.8720    3.2450    3.5200 c3        1 M13      0.097100
     23 C6          5.7100    4.0540    2.5270 c3        1 M13      0.139400
     24 O5          5.9280    3.3180    1.3440 oh        1 M13     -0.594800
     25 HO10        0.5350   -0.0170    0.0020 ho        1 M13      0.408000
     26 H121        3.2400    0.6740   -0.4550 h1        1 M13      0.064700
     27 H122        2.5790   -1.0450   -0.3990 h1        1 M13      0.064700
     28 H11         2.4070    1.0300    1.9300 h1        1 M13      0.064700
     29 H7          1.3420    0.0070    3.8800 h2        1 M13      0.062700
     30 HM1        -1.3030   -2.4740    3.6080 h1        1 M13      0.042367
     31 HM2        -0.9760   -0.7090    4.0170 h1        1 M13      0.042367
     32 HM3        -0.7810   -1.2980    2.2910 h1        1 M13      0.042367
     33 H10         4.2540   -1.4540    1.4730 h1        1 M13      0.096700
     34 HO9         4.8590    1.2860    1.8520 ho        1 M13      0.421000
     35 H9          5.0850   -1.0680    3.7380 h1        1 M13      0.082700
     36 H8          2.9310   -1.4820    5.1120 h1        1 M13      0.088700
     37 HO8         2.7430   -3.0300    2.8150 ho        1 M13      0.425000
     38 H1          5.8640    0.4190    4.9540 h2        1 M13      0.102700
     39 H2          3.9830    1.1430    6.6620 h1        1 M13      0.108700
     40 HO2         6.3720    2.6160    6.3390 ho        1 M13      0.412000
     41 H3          2.8000    2.8800    5.3650 h1        1 M13      0.104700
     42 HO3         4.3460    3.8410    7.5150 ho        1 M13      0.419000
     43 H4          5.5200    4.4150    5.2610 h1        1 M13      0.042700
     44 HO4         3.3600    5.4880    5.2230 ho        1 M13      0.425000
     45 H5          3.9110    2.9110    3.0390 h1        1 M13      0.078700
     46 H61         5.1260    4.9630    2.2170 h1        1 M13      0.066200
     47 H62         6.6820    4.3560    2.9970 h1        1 M13      0.066200
     48 HO5         6.5190    2.5850    1.5650 ho        1 M13      0.414000
@<TRIPOS>BOND
     1    1    2 1   
     2    1   25 1   
     3    2    3 1   
     4    2   26 1   
     5    2   27 1   
     6    3    4 1   
     7    3    8 1   
     8    3   28 1   
     9    4    5 1   
    10    5    6 1   
    11    5   11 1   
    12    5   29 1   
    13    6    7 1   
    14    7   30 1   
    15    7   31 1   
    16    7   32 1   
    17    8    9 1   
    18    8   10 1   
    19    8   33 1   
    20    9   34 1   
    21   10   11 1   
    22   10   13 1   
    23   10   35 1   
    24   11   12 1   
    25   11   36 1   
    26   12   37 1   
    27   13   14 1   
    28   14   15 1   
    29   14   16 1   
    30   14   38 1   
    31   15   22 1   
    32   16   17 1   
    33   16   18 1   
    34   16   39 1   
    35   17   40 1   
    36   18   19 1   
    37   18   20 1   
    38   18   41 1   
    39   19   42 1   
    40   20   21 1   
    41   20   22 1   
    42   20   43 1   
    43   21   44 1   
    44   22   23 1   
    45   22   45 1   
    46   23   24 1   
    47   23   46 1   
    48   23   47 1   
    49   24   48 1   
@<TRIPOS>SUBSTRUCTURE
     1 M13         1 TEMP              0 ****  ****    0 ROOT
