@<TRIPOS>MOLECULE
molecule
   48    49     1     0     0
SMALL
bcc


@<TRIPOS>ATOM
      1 O10          0.0000     0.0000     0.0000 oh         1 M13      -0.596800
      2 C12          1.4170     0.0000     0.0000 c3         1 M13       0.151400
      3 C11          1.9030     0.0000     1.4450 c3         1 M13       0.145100
      4 O11          1.3710    -1.1700     2.0770 os         1 M13      -0.415600
      5 C7           1.6930    -1.2420     3.4670 c3         1 M13       0.340900
      6 O7           1.0930    -2.3900     4.0620 os         1 M13      -0.401600
      7 CM          -0.3190    -2.3740     3.9110 c3         1 M13       0.126700
      8 C10          3.4350    -0.0120     1.5260 c3         1 M13       0.131100
      9 O9           3.9650     1.1750     0.9480 oh         1 M13      -0.584800
     10 C9           3.9250    -0.1610     2.9740 c3         1 M13       0.123100
     11 C8           3.2110    -1.3250     3.6650 c3         1 M13       0.102100
     12 O8           3.6740    -2.5540     3.1030 oh         1 M13      -0.580800
     13 O1           3.7040     1.0420     3.7090 os         1 M13      -0.420600
     14 C1           4.7060     1.2370     4.7020 c3         1 M13       0.311900
     15 O6           5.8570     1.9170     4.1890 os         1 M13      -0.392600
     16 C2           4.1160     1.9950     5.8890 c3         1 M13       0.116100
     17 O2           5.0680     1.9430     6.9530 oh         1 M13      -0.579800
     18 C3           3.8230     3.4500     5.5210 c3         1 M13       0.129100
     19 O3           3.4150     4.1480     6.6950 oh         1 M13      -0.598800
     20 C4           5.0570     4.1140     4.9070 c3         1 M13       0.119100
     21 O4           4.7040     5.3980     4.3990 oh         1 M13      -0.604800
     22 C5           5.6000     3.2570     3.7580 c3         1 M13       0.142100
     23 C6           6.9090     3.8180     3.2120 c3         1 M13       0.154400
     24 O5           7.3590     2.9750     2.1660 oh         1 M13      -0.596800
     25 HO10        -0.3140     0.1000    -0.8830 ho         1 M13       0.402000
     26 H121         1.7810    -0.8850    -0.5070 h1         1 M13       0.031700
     27 H122         1.7810     0.8850    -0.5070 h1         1 M13       0.031700
     28 H11          1.5270     0.8800     1.9540 h1         1 M13       0.065700
     29 H7           1.3230    -0.3500     3.9580 h2         1 M13       0.036700
     30 HM1         -0.5800    -2.7060     2.9130 h1         1 M13       0.036700
     31 HM2         -0.7680    -3.0380     4.6410 h1         1 M13       0.036700
     32 HM3         -0.6880    -1.3670     4.0640 h1         1 M13       0.036700
     33 H10          3.7970    -0.8610     0.9590 h1         1 M13       0.060700
     34 HO9          4.4800     0.9530     0.1900 ho         1 M13       0.406000
     35 H9           4.9870    -0.3710     2.9570 h1         1 M13       0.070700
     36 H8           3.4350    -1.3020     4.7250 h1         1 M13       0.045700
     37 HO8          4.1420    -3.0430     3.7600 ho         1 M13       0.406000
     38 H1           5.0260     0.2640     5.0550 h2         1 M13       0.069700
     39 H2           3.1970     1.5130     6.2000 h1         1 M13       0.048700
     40 HO2          4.7100     1.4490     7.6720 ho         1 M13       0.406000
     41 H3           3.0180     3.4710     4.7970 h1         1 M13       0.063700
     42 HO3          2.5060     4.3880     6.6180 ho         1 M13       0.405000
     43 H4           5.8220     4.2200     5.6670 h1         1 M13       0.065700
     44 HO4          5.0030     6.0650     4.9940 ho         1 M13       0.411000
     45 H5           4.8640     3.2320     2.9630 h1         1 M13       0.081700
     46 H61          7.6510     3.8460     4.0010 h1         1 M13       0.031200
     47 H62          6.7460     4.8180     2.8290 h1         1 M13       0.031200
     48 HO5          8.1640     3.3150     1.8130 ho         1 M13       0.399000
@<TRIPOS>BOND
     1     1     2 1
     2     1    25 1
     3     2     3 1
     4     2    26 1
     5     2    27 1
     6     3     8 1
     7     3     4 1
     8     3    28 1
     9     4     5 1
    10     5     6 1
    11     5    11 1
    12     5    29 1
    13     6     7 1
    14     7    30 1
    15     7    31 1
    16     7    32 1
    17     8     9 1
    18     8    10 1
    19     8    33 1
    20     9    34 1
    21    10    11 1
    22    10    13 1
    23    10    35 1
    24    11    12 1
    25    11    36 1
    26    12    37 1
    27    13    14 1
    28    14    15 1
    29    14    16 1
    30    14    38 1
    31    15    22 1
    32    16    17 1
    33    16    18 1
    34    16    39 1
    35    17    40 1
    36    18    20 1
    37    18    19 1
    38    18    41 1
    39    19    42 1
    40    20    22 1
    41    20    21 1
    42    20    43 1
    43    21    44 1
    44    22    23 1
    45    22    45 1
    46    23    24 1
    47    23    46 1
    48    23    47 1
    49    24    48 1
@<TRIPOS>SUBSTRUCTURE
     1 M13         1 TEMP              0 ****  ****    0 ROOT
