@<TRIPOS>MOLECULE
M14
   48    50     1     0     0
SMALL
bcc


@<TRIPOS>ATOM
      1 C          -0.2310   -0.1610   -1.3190 ca        1 M14      0.224600
      2 C1         -0.5330   -1.0830   -0.2730 ca        1 M14     -0.199000
      3 C2          0.3930   -1.3800    0.6970 ca        1 M14      0.042000
      4 C3          1.6850   -0.7990    0.7140 ca        1 M14     -0.603500
      5 C4          1.9650    0.1670   -0.2810 ca        1 M14      0.061000
      6 C5          1.0520    0.4860   -1.2640 ca        1 M14     -0.097600
      7 C6         -0.0850   -1.9520   -7.0160 ca        1 M14      0.134100
      8 C7         -1.0420   -2.7910   -7.6120 ca        1 M14     -0.140000
      9 C8         -2.3870   -2.6050   -7.2880 ca        1 M14      0.063400
     10 C9         -2.7840   -1.6140   -6.3810 ca        1 M14     -0.177000
     11 C10        -1.8020   -0.8150   -5.7880 ca        1 M14      0.116100
     12 C11        -0.4410   -0.9660   -6.0930 ca        1 M14     -0.201000
     13 C12         4.4810   -0.8060   -6.6040 ca        1 M14      0.028400
     14 C13         3.3300   -1.1120   -7.3340 ca        1 M14     -0.092000
     15 C14         2.2600   -1.7370   -6.6730 ca        1 M14      0.110100
     16 C15         2.3200   -2.0480   -5.3110 ca        1 M14     -0.131000
     17 C16         3.4830   -1.7200   -4.6000 ca        1 M14     -0.023000
     18 C17         4.5670   -1.1040   -5.2380 ca        1 M14     -0.093000
     19 O19        -2.1220    0.2550   -4.9540 os        1 M14     -0.329900
     20 C20        -3.0390   -0.0260   -3.9080 c3        1 M14      0.060400
     21 C21        -2.3350   -0.4820   -2.6270 c         1 M14      0.639100
     22 N          -1.0890    0.1170   -2.3540 n         1 M14     -0.447100
     23 O22        -2.8560   -1.3080   -1.8700 o         1 M14     -0.527100
     24 S           2.7550   -1.1680    1.8250 sy        1 M14      1.504200
     25 N23         3.5590   -2.6560    0.9460 n4        1 M14     -0.782500
     26 O24         3.8400   -0.3180    1.9090 o         1 M14     -0.579300
     27 O25         2.2560   -1.8040    2.9450 o         1 M14     -0.579300
     28 CL2         1.4740    1.6620   -2.4150 cl        1 M14     -0.038400
     29 C27         3.5640   -2.0140   -3.2120 cg        1 M14      0.327800
     30 N28         3.6290   -2.2430   -2.0720 n1        1 M14     -0.488800
     31 H1         -1.5280   -1.5660   -0.2330 ha        1 M14      0.207000
     32 H2          0.1180   -2.0900    1.5020 ha        1 M14      0.170000
     33 H4          2.9470    0.6830   -0.2610 ha        1 M14      0.180000
     34 H7         -0.7230   -3.5600   -8.3330 ha        1 M14      0.181000
     35 H9         -3.8510   -1.4610   -6.1600 ha        1 M14      0.165000
     36 H11         0.3100   -0.3020   -5.6460 ha        1 M14      0.157000
     37 H13         3.2530   -0.8880   -8.4110 ha        1 M14      0.186000
     38 H15         1.4710   -2.5450   -4.8190 ha        1 M14      0.159000
     39 H17         5.4800   -0.8580   -4.6730 ha        1 M14      0.166000
     40 H20        -3.7930   -0.8090   -4.1810 h1        1 M14      0.111200
     41 H20A       -3.5500    0.9590   -3.7090 h1        1 M14      0.111200
     42 HN         -0.7800    0.7890   -3.0370 hn        1 M14      0.358500
     43 HN23        2.9550   -3.0420    0.2240 hn        1 M14      0.458467
     44 HN2A        3.7650   -3.4010    1.6080 hn        1 M14      0.458467
     45 O           1.2100   -2.1370   -7.4890 os        1 M14     -0.230200
     46 H233        4.4350   -2.3840    0.5010 hn        1 M14      0.458467
     47 CL1        -3.5610   -3.5900   -8.0060 cl        1 M14     -0.043400
     48 CL          5.7880   -0.0600   -7.3770 cl        1 M14     -0.036400
@<TRIPOS>BOND
     1    1    2 ar  
     2    1    6 ar  
     3    1   22 1   
     4    2    3 ar  
     5    2   31 1   
     6    3    4 ar  
     7    3   32 1   
     8    4    5 ar  
     9    4   24 1   
    10    5    6 ar  
    11    5   33 1   
    12    6   28 1   
    13    7    8 ar  
    14    7   12 ar  
    15    7   45 1   
    16    8    9 ar  
    17    8   34 1   
    18    9   10 ar  
    19    9   47 1   
    20   10   11 ar  
    21   10   35 1   
    22   11   12 ar  
    23   11   19 1   
    24   12   36 1   
    25   13   14 ar  
    26   13   18 ar  
    27   13   48 1   
    28   14   15 ar  
    29   14   37 1   
    30   15   16 ar  
    31   15   45 1   
    32   16   17 ar  
    33   16   38 1   
    34   17   18 ar  
    35   17   29 1   
    36   18   39 1   
    37   19   20 1   
    38   20   21 1   
    39   20   40 1   
    40   20   41 1   
    41   21   22 1   
    42   21   23 2   
    43   22   42 1   
    44   24   25 1   
    45   24   26 2   
    46   24   27 2   
    47   25   43 1   
    48   25   44 1   
    49   25   46 1   
    50   29   30 3   
@<TRIPOS>SUBSTRUCTURE
     1 M14         1 TEMP              0 ****  ****    0 ROOT
