@<TRIPOS>MOLECULE
molecule
   48    50     1     0     0
SMALL
bcc


@<TRIPOS>ATOM
      1 C            0.0000     0.0000     0.0000 ca         1 M14       0.170600
      2 C1           1.3880     0.0000     0.0000 ca         1 M14      -0.145000
      3 C2           2.0790     0.0000     1.1970 ca         1 M14      -0.008000
      4 C3           1.3880     0.0010     2.3940 ca         1 M14      -0.366500
      5 C4           0.0050    -0.0000     2.3990 ca         1 M14      -0.003000
      6 C5          -0.6910     0.0000     1.2050 ca         1 M14      -0.037600
      7 C6          -0.4940    -1.9440    -8.1630 ca         1 M14       0.205100
      8 C7          -1.8080    -1.5500    -8.3700 ca         1 M14      -0.174000
      9 C8          -2.5430    -1.0160    -7.3280 ca         1 M14       0.103400
     10 C9          -1.9710    -0.8750    -6.0770 ca         1 M14      -0.258000
     11 C10         -0.6570    -1.2680    -5.8650 ca         1 M14       0.155100
     12 C11          0.0810    -1.8050    -6.9090 ca         1 M14      -0.248000
     13 C12          3.8590    -2.6920    -9.0200 ca         1 M14       0.087400
     14 C13          2.5880    -2.2180    -9.2960 ca         1 M14      -0.098000
     15 C14          1.4700    -2.9470    -8.9130 ca         1 M14       0.106100
     16 C15          1.6230    -4.1550    -8.2530 ca         1 M14      -0.100000
     17 C16          2.9030    -4.6360    -7.9720 ca         1 M14       0.007000
     18 C17          4.0210    -3.8960    -8.3620 ca         1 M14      -0.091000
     19 O19         -0.0950    -1.1290    -4.6360 os         1 M14      -0.296900
     20 C20         -0.9140    -0.5700    -3.6070 c3         1 M14       0.074400
     21 C21         -0.1280    -0.4930    -2.3250 c          1 M14       0.662100
     22 N           -0.7010     0.0050    -1.2110 ns         1 M14      -0.469100
     23 O22          1.0210    -0.8800    -2.2940 o          1 M14      -0.539100
     24 S            2.2720     0.0010     3.9190 sy         1 M14       1.229200
     25 N23          2.5180     1.5840     4.3420 nz         1 M14      -0.806500
     26 O24          1.3920    -0.5430     4.8930 o          1 M14      -0.516300
     27 O25          3.5540    -0.5430     3.6380 o          1 M14      -0.516300
     28 Cl2         -2.4270     0.0000     1.2120 cl         1 M14      -0.050400
     29 C27          3.0680    -5.8830    -7.2890 cg         1 M14       0.230800
     30 N28          3.2180    -6.8740    -6.7550 n1         1 M14      -0.332800
     31 H1           1.9290     0.0470    -0.9370 ha         1 M14       0.214000
     32 H2           3.1620    -0.0160     1.1970 ha         1 M14       0.164000
     33 H4          -0.5340    -0.0200     3.3390 ha         1 M14       0.169000
     34 H7          -2.2580    -1.6610    -9.3490 ha         1 M14       0.171000
     35 H9          -2.5370    -0.4260    -5.2700 ha         1 M14       0.138000
     36 H11          1.0780    -1.6180    -6.5290 ha         1 M14       0.177000
     37 H13          2.4640    -1.2930    -9.8470 ha         1 M14       0.166000
     38 H15          0.7520    -4.7440    -7.9940 ha         1 M14       0.164000
     39 H17          5.0350    -4.2420    -8.1960 ha         1 M14       0.170000
     40 H20         -1.8510    -1.1120    -3.5560 h1         1 M14       0.069700
     41 H20A        -1.1120     0.4720    -3.8300 h1         1 M14       0.069700
     42 HN          -1.6340     0.3650    -1.2470 hn         1 M14       0.350500
     43 HN23         1.6360     2.0520     4.4080 hn         1 M14       0.491467
     44 HN2A         2.9830     1.6240     5.2270 hn         1 M14       0.491467
     45 O            0.2260    -2.4740    -9.1860 os         1 M14      -0.227200
     46 H233         3.0830     2.0310     3.6480 hn         1 M14       0.491467
     47 Cl1         -4.1870    -0.5210    -7.5900 cl         1 M14      -0.079400
     48 Cl           5.6900    -1.9590    -9.3510 cl         1 M14      -0.171400
@<TRIPOS>BOND
     1     1     2 ar
     2     1     6 ar
     3     1    22 1
     4     2     3 ar
     5     3     4 ar
     6     4     5 ar
     7     4    24 1
     8     5     6 ar
     9     6    28 1
    10     7     8 ar
    11     7    12 ar
    12     7    45 1
    13     8     9 ar
    14     9    10 ar
    15     9    47 1
    16    10    11 ar
    17    11    12 ar
    18    11    19 1
    19    13    14 ar
    20    13    18 ar
    21    13    48 1
    22    14    15 ar
    23    15    16 ar
    24    15    45 1
    25    16    17 ar
    26    17    18 ar
    27    17    29 1
    28    19    20 1
    29    20    21 1
    30    21    22 1
    31    21    23 2
    32    24    25 1
    33    24    26 2
    34    24    27 2
    35    29    30 3
    36     2    31 1
    37     3    32 1
    38     5    33 1
    39     8    34 1
    40    10    35 1
    41    12    36 1
    42    14    37 1
    43    16    38 1
    44    18    39 1
    45    20    40 1
    46    20    41 1
    47    22    42 1
    48    25    43 1
    49    25    44 1
    50    46    25 1
@<TRIPOS>SUBSTRUCTURE
     1 M14         1 TEMP              0 ****  ****    0 ROOT
