@<TRIPOS>MOLECULE
molecule
   35    36     1     0     0
SMALL
bcc


@<TRIPOS>ATOM
      1 F24          0.0000     0.0000     0.0000 f          1 M15      -0.123900
      2 C2           1.3510     0.0000     0.0000 ca         1 M15       0.145900
      3 C4           2.0430     0.0000     1.1990 ca         1 M15      -0.147000
      4 C6           3.4260     0.0000     1.1980 ca         1 M15       0.076900
      5 I23          4.4740     0.0010     3.0120 i          1 M15      -0.172900
      6 C5           4.1170    -0.0010     0.0000 ca         1 M15      -0.121000
      7 C3           3.4260    -0.0020    -1.1980 ca         1 M15      -0.091000
      8 C1           2.0440    -0.0070    -1.1990 ca         1 M15      -0.126300
      9 C7           1.2920    -0.0080    -2.5040 c3         1 M15       0.165300
     10 N8           0.7440    -1.3440    -2.7510 ns         1 M15      -0.603900
     11 C9           0.0280    -1.5830    -3.8690 c          1 M15       0.664700
     12 O16         -0.1630    -0.6890    -4.6710 o          1 M15      -0.535100
     13 C10         -0.5240    -2.9270    -4.1170 ca         1 M15      -0.199600
     14 C12         -0.3070    -3.9570    -3.1970 ca         1 M15      -0.067000
     15 C14         -0.8250    -5.2110    -3.4340 ca         1 M15      -0.206000
     16 C15         -1.5620    -5.4570    -4.5830 ca         1 M15       0.090400
     17 Cl2         -2.2100    -7.0430    -4.8700 cl         1 M15      -0.133400
     18 C13         -1.7840    -4.4470    -5.5010 ca         1 M15      -0.237000
     19 C11         -1.2740    -3.1790    -5.2740 ca         1 M15       0.227100
     20 O17         -1.4910    -2.1870    -6.1730 os         1 M15      -0.233900
     21 C18         -2.2550    -2.5190    -7.3350 c3         1 M15       0.006400
     22 C19         -2.3910    -1.3010    -8.2120 c          1 M15       0.894600
     23 O20         -1.8870    -0.2560    -7.8780 o          1 M15      -0.817800
     24 O21         -3.0740    -1.3790    -9.3650 o          1 M15      -0.817800
     25 H1           1.5030     0.0420     2.1370 ha         1 M15       0.154000
     26 H2           5.2000     0.0010     0.0010 ha         1 M15       0.143000
     27 H3           3.9690    -0.0050    -2.1360 ha         1 M15       0.151000
     28 H4           1.9660     0.2600    -3.3090 h1         1 M15       0.067200
     29 H5           0.4830     0.7110    -2.4560 h1         1 M15       0.067200
     30 H6           0.9390    -2.0910    -2.1130 hn         1 M15       0.306500
     31 H7           0.2670    -3.7690    -2.2980 ha         1 M15       0.120000
     32 H8          -0.6560    -6.0080    -2.7200 ha         1 M15       0.130000
     33 H9          -2.3620    -4.6470    -6.3950 ha         1 M15       0.166000
     34 H10         -1.7510    -3.3060    -7.8850 h1         1 M15       0.028700
     35 H11         -3.2380    -2.8610    -7.0350 h1         1 M15       0.028700
@<TRIPOS>BOND
     1    23    22 1
     2    21    22 1
     3    21    20 1
     4    17    16 1
     5    22    24 1
     6    18    16 ar
     7    18    19 ar
     8    20    19 1
     9    16    15 ar
    10    19    13 ar
    11    15    14 ar
    12    13    14 ar
    13    13    11 1
    14    10    11 1
    15    10     9 1
    16    11    12 2
    17     9     8 1
    18     8     7 ar
    19     8     2 ar
    20     7     6 ar
    21     1     2 1
    22     2     3 ar
    23     6     4 ar
    24     3     4 ar
    25     4     5 1
    26     3    25 1
    27     6    26 1
    28     7    27 1
    29     9    28 1
    30     9    29 1
    31    10    30 1
    32    14    31 1
    33    15    32 1
    34    18    33 1
    35    21    34 1
    36    21    35 1
@<TRIPOS>SUBSTRUCTURE
     1 M15         1 TEMP              0 ****  ****    0 ROOT
