@<TRIPOS>MOLECULE
M15
   35    36     1     0     0
SMALL
bcc


@<TRIPOS>ATOM
      1 F24          0.0000     0.0000     0.0000 f          1 M15      -0.117900
      2 C2           1.3510     0.0000     0.0000 ca         1 M15       0.128900
      3 C4           2.0430     0.0000     1.1990 ca         1 M15      -0.127000
      4 C6           3.4260     0.0000     1.1980 ca         1 M15       0.225900
      5 I23          4.4740     0.0010     3.0120 i          1 M15      -0.299900
      6 C5           4.1170    -0.0010     0.0000 ca         1 M15      -0.105000
      7 C3           3.4260    -0.0020    -1.1980 ca         1 M15      -0.053000
      8 C1           2.0440    -0.0070    -1.1990 ca         1 M15      -0.135300
      9 C7           1.2920    -0.0080    -2.5040 c3         1 M15       0.118300
     10 N8           0.7440    -1.3440    -2.7510 ns         1 M15      -0.236900
     11 C9           0.0280    -1.5830    -3.8690 c          1 M15       0.589700
     12 O16         -0.1630    -0.6890    -4.6710 o          1 M15      -0.573100
     13 C10         -0.5240    -2.9270    -4.1170 ca         1 M15      -0.217600
     14 C12         -0.3070    -3.9570    -3.1970 ca         1 M15      -0.041000
     15 C14         -0.8250    -5.2110    -3.4340 ca         1 M15      -0.193000
     16 C15         -1.5620    -5.4570    -4.5830 ca         1 M15       0.041400
     17 Cl2         -2.2100    -7.0430    -4.8700 cl         1 M15      -0.062400
     18 C13         -1.7840    -4.4470    -5.5010 ca         1 M15      -0.237000
     19 C11         -1.2740    -3.1790    -5.2740 ca         1 M15       0.243100
     20 O17         -1.4910    -2.1870    -6.1730 os         1 M15      -0.202900
     21 C18         -2.2550    -2.5190    -7.3350 c3         1 M15       0.067400
     22 C19         -2.3910    -1.3010    -8.2120 c          1 M15       0.972600
     23 O20         -1.8870    -0.2560    -7.8780 o          1 M15      -0.874300
     24 O21         -3.0740    -1.3790    -9.3650 o          1 M15      -0.874300
     25 H1           1.5030     0.0420     2.1370 ha         1 M15       0.132000
     26 H2           5.2000     0.0010     0.0010 ha         1 M15       0.119000
     27 H3           3.9690    -0.0050    -2.1360 ha         1 M15       0.121000
     28 H4           1.9660     0.2600    -3.3090 h1         1 M15       0.036200
     29 H5           0.4830     0.7110    -2.4560 h1         1 M15       0.036200
     30 H6           0.9390    -2.0910    -2.1130 hn         1 M15       0.175500
     31 H7           0.2670    -3.7690    -2.2980 ha         1 M15       0.093000
     32 H8          -0.6560    -6.0080    -2.7200 ha         1 M15       0.107000
     33 H9          -2.3620    -4.6470    -6.3950 ha         1 M15       0.150000
     34 H10         -1.7510    -3.3060    -7.8850 h1         1 M15      -0.002800
     35 H11         -3.2380    -2.8610    -7.0350 h1         1 M15      -0.002800
@<TRIPOS>BOND
     1     1     2 1   
     2     2     3 ar  
     3     2     8 ar  
     4     3     4 ar  
     5     3    25 1   
     6     4     5 1   
     7     4     6 ar  
     8     6     7 ar  
     9     6    26 1   
    10     7     8 ar  
    11     7    27 1   
    12     8     9 1   
    13     9    10 1   
    14     9    28 1   
    15     9    29 1   
    16    10    11 1   
    17    10    30 1   
    18    11    12 2   
    19    11    13 1   
    20    13    14 ar  
    21    13    19 ar  
    22    14    15 ar  
    23    14    31 1   
    24    15    16 ar  
    25    15    32 1   
    26    16    17 1   
    27    16    18 ar  
    28    18    19 ar  
    29    18    33 1   
    30    19    20 1   
    31    20    21 1   
    32    21    22 1   
    33    21    34 1   
    34    21    35 1   
    35    22    23 1   
    36    22    24 1   
@<TRIPOS>SUBSTRUCTURE
     1 M15         1 TEMP              0 ****  ****    0 ROOT
