@<TRIPOS>MOLECULE
molecule
   55    56     1     0     0
SMALL
bcc


@<TRIPOS>ATOM
      1 C1           0.0000     0.0000     0.0000 c3         1 M18      -0.076100
      2 C2           1.5070     0.0000     0.0000 c          1 M18       0.626100
      3 O1           2.1110     0.0000     1.0460 o          1 M18      -0.530000
      4 O2           2.1780    -0.0000    -1.1620 os         1 M18      -0.436900
      5 C3           3.6280    -0.0010    -1.0870 c3         1 M18       0.130400
      6 C4           4.2130    -0.0010    -2.5000 c3         1 M18       0.116700
      7 C5           3.6160     1.1670    -3.3150 c3         1 M18      -0.093400
      8 C6           3.4320     0.5470    -4.7250 c3         1 M18      -0.095400
      9 C7           3.0390    -0.9100    -4.3760 c3         1 M18       0.093000
     10 N1           3.8490    -1.2460    -3.1920 n          1 M18      -0.486800
     11 C8           4.1990    -2.4890    -2.8070 c          1 M18       0.669100
     12 C9           3.7550    -3.6810    -3.6140 c3         1 M18       0.064000
     13 N2           4.2600    -4.9080    -2.9940 ns         1 M18      -0.567900
     14 C10          3.9850    -6.1060    -3.5460 c          1 M18       0.757100
     15 O3           4.4500    -7.2330    -2.9750 os         1 M18      -0.431900
     16 C11          4.1140    -8.4880    -3.6250 c3         1 M18       0.178800
     17 C12          4.6710    -8.4890    -5.0500 c3         1 M18      -0.105433
     18 C13          4.7250    -9.6490    -2.8380 c3         1 M18      -0.105433
     19 C14          2.5930    -8.6480    -3.6720 c3         1 M18      -0.105433
     20 O4           3.3170    -6.1690    -4.5590 o          1 M18      -0.626000
     21 O5           4.8730    -2.6480    -1.8110 o          1 M18      -0.614100
     22 C15         -0.5030    -0.0000     1.4210 ca         1 M18      -0.070300
     23 C16         -0.7330     1.1970     2.0720 ca         1 M18      -0.103000
     24 C17         -1.1950     1.1970     3.3760 ca         1 M18       0.031400
     25 Cl1         -1.4850     2.7000     4.1950 cl         1 M18      -0.109400
     26 C18         -1.4260    -0.0020     4.0270 ca         1 M18      -0.115000
     27 C19         -1.1950    -1.1990     3.3750 ca         1 M18      -0.116000
     28 C20         -0.7390    -1.1970     2.0700 ca         1 M18      -0.107000
     29 H1          -0.3610     0.8850    -0.5110 hc         1 M18       0.077700
     30 H1A         -0.3610    -0.8840    -0.5110 hc         1 M18       0.077700
     31 H3           3.9620     0.8840    -0.5570 h1         1 M18       0.071200
     32 H3A          3.9610    -0.8850    -0.5580 h1         1 M18       0.071200
     33 H4           5.2920     0.0940    -2.4590 h1         1 M18       0.078700
     34 H5           4.3080     2.0000    -3.3510 hc         1 M18       0.064200
     35 H5A          2.6610     1.4700    -2.9030 hc         1 M18       0.064200
     36 H6           4.3600     0.5740    -5.2830 hc         1 M18       0.059200
     37 H6A          2.6330     1.0440    -5.2630 hc         1 M18       0.059200
     38 H7           3.2830    -1.5710    -5.1980 h1         1 M18       0.052200
     39 H7A          1.9840    -0.9670    -4.1380 h1         1 M18       0.052200
     40 H9           4.1440    -3.6000    -4.6220 h1         1 M18       0.072200
     41 H9A          2.6720    -3.7120    -3.6460 h1         1 M18       0.072200
     42 HN2          4.8100    -4.8560    -2.1600 hn         1 M18       0.349500
     43 H12          5.6240    -7.9740    -5.0660 hc         1 M18       0.049700
     44 H12A         4.8080    -9.5110    -5.3840 hc         1 M18       0.049700
     45 H12B         3.9760    -7.9840    -5.7100 hc         1 M18       0.049700
     46 H13          4.3300    -9.6490    -1.8290 hc         1 M18       0.049700
     47 H13A         4.4750   -10.5850    -3.3240 hc         1 M18       0.049700
     48 H13B         5.8020    -9.5370    -2.8050 hc         1 M18       0.049700
     49 H14          2.1590    -8.2380    -2.7680 hc         1 M18       0.049700
     50 H14A         2.2010    -8.1190    -4.5320 hc         1 M18       0.049700
     51 H14B         2.3430    -9.6990    -3.7490 hc         1 M18       0.049700
     52 H16         -0.5920     2.1340     1.5480 ha         1 M18       0.142000
     53 H18         -1.7850    -0.0030     5.0490 ha         1 M18       0.144000
     54 H19         -1.3780    -2.1380     3.8840 ha         1 M18       0.139000
     55 H20         -0.5580    -2.1350     1.5580 ha         1 M18       0.135000
@<TRIPOS>BOND
     1     1     2 1
     2     1    22 1
     3     2     3 2
     4     2     4 1
     5     4     5 1
     6     5     6 1
     7     6     7 1
     8     6    10 1
     9     7     8 1
    10     8     9 1
    11     9    10 1
    12    10    11 1
    13    11    12 1
    14    11    21 2
    15    12    13 1
    16    13    14 1
    17    14    15 1
    18    14    20 2
    19    15    16 1
    20    16    17 1
    21    16    18 1
    22    16    19 1
    23    22    23 ar
    24    22    28 ar
    25    23    24 ar
    26    24    25 1
    27    24    26 ar
    28    26    27 ar
    29    27    28 ar
    30     1    29 1
    31     1    30 1
    32     5    31 1
    33     5    32 1
    34     6    33 1
    35     7    34 1
    36     7    35 1
    37     8    36 1
    38     8    37 1
    39     9    38 1
    40     9    39 1
    41    12    40 1
    42    12    41 1
    43    13    42 1
    44    17    43 1
    45    17    44 1
    46    17    45 1
    47    18    46 1
    48    18    47 1
    49    18    48 1
    50    19    49 1
    51    19    50 1
    52    19    51 1
    53    23    52 1
    54    26    53 1
    55    27    54 1
    56    28    55 1
@<TRIPOS>SUBSTRUCTURE
     1 M18         1 TEMP              0 ****  ****    0 ROOT
