@<TRIPOS>MOLECULE
M1A
   19    20     1     0     0
SMALL
bcc


@<TRIPOS>ATOM
      1 N9           0.0000     0.0000     0.0000 na         1 M1A       0.306500
      2 C8           1.3640     0.0000     0.0000 cc         1 M1A       0.293700
      3 N7           1.8070     0.0000     1.2240 nd         1 M1A      -0.457100
      4 C5           0.7600     0.0000     2.0830 cd         1 M1A      -0.109900
      5 C6           0.6300     0.0060     3.4830 cc         1 M1A       0.002300
      6 N6           1.7490     0.0140     4.2980 nv         1 M1A      -0.350200
      7 N1          -0.5910     0.0010     4.0050 na         1 M1A       0.347100
      8 C2          -1.6650     0.0010     3.2350 cc         1 M1A       0.325400
      9 N3          -1.5910    -0.0000     1.9210 nd         1 M1A      -0.491000
     10 C4          -0.4120     0.0000     1.3090 cd         1 M1A       0.145300
     11 CN1         -0.7510     0.0010     5.4610 c3         1 M1A      -0.055400
     12 HN9         -0.5920     0.0000    -0.8070 hn         1 M1A       0.159700
     13 H8           1.9860     0.0000    -0.8870 h5         1 M1A       0.060800
     14 HN61         1.7590     0.5710     5.1290 hn         1 M1A       0.306800
     15 HN62         2.5580    -0.5180     4.0430 hn         1 M1A       0.306800
     16 H2          -2.6420    -0.0030     3.7030 h5         1 M1A       0.044100
     17 H11         -0.2900    -0.8870     5.8750 h1         1 M1A       0.055367
     18 H12         -0.2760     0.8820     5.8770 h1         1 M1A       0.055367
     19 H13         -1.8060     0.0090     5.7090 h1         1 M1A       0.055367
@<TRIPOS>BOND
     1     1     2 1   
     2     1    10 2   
     3     1    12 1   
     4     2     3 2   
     5     2    13 1   
     6     3     4 1   
     7     4     5 2   
     8     4    10 1   
     9     5     6 1   
    10     5     7 1   
    11     6    14 1   
    12     6    15 1   
    13     7     8 1   
    14     7    11 1   
    15     8     9 2   
    16     8    16 1   
    17     9    10 1   
    18    11    17 1   
    19    11    18 1   
    20    11    19 1   
@<TRIPOS>SUBSTRUCTURE
     1 M1A         1 TEMP              0 ****  ****    0 ROOT
