@<TRIPOS>MOLECULE
M1B
   47    50     1     0     0
SMALL
bcc


@<TRIPOS>ATOM
      1 C1           0.0000     0.0000     0.0000 ca         1 M1B      -0.090000
      2 C2           1.3950     0.0000     0.0000 ca         1 M1B      -0.054000
      3 C3           2.0920     0.0000     1.2080 ca         1 M1B      -0.039000
      4 C4           1.3940     0.0010     2.4160 cp         1 M1B      -0.001000
      5 C5          -0.0010     0.0020     2.4160 ca         1 M1B      -0.060000
      6 C6          -0.6980     0.0020     1.2080 ca         1 M1B      -0.213900
      7 C7           2.1170    -0.0000     3.6690 cp         1 M1B      -0.050000
      8 C8           3.3710    -0.6060     3.7490 ca         1 M1B      -0.079500
      9 C9           4.0690    -0.6080     4.9580 ca         1 M1B      -0.059000
     10 C10          3.5120    -0.0030     6.0840 ca         1 M1B      -0.125900
     11 C11          2.2580     0.6040     6.0040 ca         1 M1B      -0.059000
     12 C12          1.5610     0.6050     4.7960 ca         1 M1B      -0.079500
     13 C13          4.2330    -0.0050     7.3350 cc         1 M1B       0.304400
     14 C14         -2.1530     0.0050     1.2060 ce         1 M1B       0.217800
     15 N15         -2.7700     0.0050     2.3690 n2         1 M1B      -0.505100
     16 N16         -2.9380     0.0070     0.0590 nz         1 M1B       0.194400
     17 N17          5.5990    -0.0080     7.3810 na         1 M1B       0.283700
     18 C18          5.9720    -0.0090     8.7010 ca         1 M1B      -0.234200
     19 C19          4.7690    -0.0070     9.4020 ca         1 M1B       0.057400
     20 N20          3.7000    -0.0040     8.5350 nd         1 M1B      -0.486100
     21 C21          4.7950    -0.0080    10.8060 ca         1 M1B       0.027000
     22 C22          7.2220    -0.0130     9.3240 ca         1 M1B      -0.028000
     23 C23          7.2280    -0.0140    10.7230 ca         1 M1B      -0.101000
     24 C24          6.0370    -0.0110    11.4530 ca         1 M1B      -0.239900
     25 C25          6.0850    -0.0130    12.9060 ce         1 M1B       0.222800
     26 N26          7.2570    -0.0160    13.6540 nz         1 M1B       0.193400
     27 N27          4.9440    -0.0100    13.5610 n2         1 M1B      -0.516100
     28 H1          -0.5420    -0.0000    -0.9380 ha         1 M1B       0.090000
     29 H2           1.9360    -0.0010    -0.9380 ha         1 M1B       0.130000
     30 H3           3.1750    -0.0010     1.2080 ha         1 M1B       0.130000
     31 H5          -0.5430     0.0030     3.3540 ha         1 M1B       0.118000
     32 H8           3.8030    -1.0750     2.8740 ha         1 M1B       0.114000
     33 H9           5.0430    -1.0780     5.0210 ha         1 M1B       0.119500
     34 H11          1.8270     1.0730     6.8800 ha         1 M1B       0.119500
     35 H12          0.5870     1.0760     4.7340 ha         1 M1B       0.114000
     36 HN15        -2.2410     0.0040     3.2180 hn         1 M1B       0.380400
     37 H161        -2.7400    -0.8110    -0.4830 hn         1 M1B       0.223133
     38 H162        -3.9050     0.0090     0.3170 hn         1 M1B       0.223133
     39 HN17         6.2150     0.0720     6.5960 hn         1 M1B       0.146700
     40 H21          3.8740    -0.0050    11.3770 ha         1 M1B       0.121000
     41 H22          8.1420    -0.0160     8.7510 ha         1 M1B       0.130000
     42 H23          8.1740    -0.0170    11.2500 ha         1 M1B       0.088000
     43 H261         7.0310    -0.0160    14.6290 hn         1 M1B       0.222133
     44 H262         7.7900    -0.8350    13.4360 hn         1 M1B       0.222133
     45 HN27         4.0780    -0.0080    13.0590 hn         1 M1B       0.383400
     46 H163        -2.7360     0.8230    -0.4830 hn         1 M1B       0.223133
     47 H263         7.7880     0.8070    13.4480 hn         1 M1B       0.222133
@<TRIPOS>BOND
     1     1     2 ar  
     2     1     6 ar  
     3     1    28 1   
     4     2     3 ar  
     5     2    29 1   
     6     3     4 ar  
     7     3    30 1   
     8     4     5 ar  
     9     4     7 1   
    10     5     6 ar  
    11     5    31 1   
    12     6    14 1   
    13     7     8 ar  
    14     7    12 ar  
    15     8     9 ar  
    16     8    32 1   
    17     9    10 ar  
    18     9    33 1   
    19    10    11 ar  
    20    10    13 1   
    21    11    12 ar  
    22    11    34 1   
    23    12    35 1   
    24    13    17 1   
    25    13    20 2   
    26    14    15 2   
    27    14    16 1   
    28    15    36 1   
    29    16    37 1   
    30    16    38 1   
    31    16    46 1   
    32    17    18 1   
    33    17    39 1   
    34    18    19 ar  
    35    18    22 ar  
    36    19    20 1   
    37    19    21 ar  
    38    21    24 ar  
    39    21    40 1   
    40    22    23 ar  
    41    22    41 1   
    42    23    24 ar  
    43    23    42 1   
    44    24    25 1   
    45    25    26 1   
    46    25    27 2   
    47    26    43 1   
    48    26    44 1   
    49    26    47 1   
    50    27    45 1   
@<TRIPOS>SUBSTRUCTURE
     1 M1B         1 TEMP              0 ****  ****    0 ROOT
