@<TRIPOS>MOLECULE
molecule
   37    37     1     0     0
SMALL
bcc


@<TRIPOS>ATOM
      1 C13          0.0000     0.0000     0.0000 cx         1 M1C      -0.118900
      2 C12          1.5290     0.0000     0.0000 cx         1 M1C      -0.118900
      3 C11          0.7630     0.0000     1.3250 cx         1 M1C       0.043500
      4 N3           2.2290     0.9450     6.0770 nz         1 M1C      -0.810600
      5 C2           0.9840     1.6950     5.8680 c3         1 M1C       0.107500
      6 C1           0.8750     2.1030     4.3990 c3         1 M1C       0.335600
      7 C9           0.8690     0.8510     3.5200 c3         1 M1C       0.111800
      8 N10          0.7640     1.2410     2.1090 n7         1 M1C      -0.764200
      9 O8          -0.3370     2.8330     4.1950 oh         1 M1C      -0.617300
     10 O14          1.9890     2.9250     4.0480 oh         1 M1C      -0.617300
     11 C4           0.9900     2.9480     6.7460 c3         1 M1C      -0.111400
     12 C5           1.0990     2.5410     8.2170 c3         1 M1C      -0.097400
     13 C6           1.1050     3.7930     9.0950 c3         1 M1C      -0.079400
     14 C7           1.2140     3.3870    10.5650 c3         1 M1C      -0.093100
     15 H131        -0.4670     0.9390    -0.2700 hc         1 M1C       0.087200
     16 H132        -0.4670    -0.9390    -0.2700 hc         1 M1C       0.087200
     17 H121         1.9970     0.9390    -0.2700 hc         1 M1C       0.087200
     18 H122         1.9970    -0.9390    -0.2700 hc         1 M1C       0.087200
     19 H11          0.7630    -0.9490     1.8480 h1         1 M1C       0.081700
     20 H2           0.1380     1.0730     6.1330 hx         1 M1C       0.126700
     21 H91          0.0230     0.2280     3.7860 h1         1 M1C       0.047200
     22 H92          1.7870     0.2980     3.6740 h1         1 M1C       0.047200
     23 H10         -0.0970     1.7300     1.9610 hn         1 M1C       0.374800
     24 HO8         -0.1340     3.6980     3.8800 ho         1 M1C       0.453500
     25 H14          1.8180     3.3530     3.2260 ho         1 M1C       0.453500
     26 H41          0.0710     3.5010     6.5910 hc         1 M1C       0.096700
     27 H42          1.8350     3.5710     6.4800 hc         1 M1C       0.096700
     28 H51          2.0170     1.9880     8.3710 hc         1 M1C       0.037200
     29 H52          0.2530     1.9180     8.4820 hc         1 M1C       0.037200
     30 H61          1.9500     4.4160     8.8290 hc         1 M1C       0.055700
     31 H62          0.1870     4.3460     8.9410 hc         1 M1C       0.055700
     32 H71          0.3810     2.7450    10.8250 hc         1 M1C       0.045367
     33 H72          1.1950     4.2740    11.1870 hc         1 M1C       0.045367
     34 H73          2.1440     2.8540    10.7240 hc         1 M1C       0.045367
     35 HN31         2.0150     0.0400     6.4480 hn         1 M1C       0.460133
     36 H32          2.8130     1.4400     6.7230 hn         1 M1C       0.460133
     37 HN32         2.7090     0.8430     5.2050 hn         1 M1C       0.460133
@<TRIPOS>BOND
     1     1     2 1
     2     1     3 1
     3     1    15 1
     4     1    16 1
     5     2     3 1
     6     2    17 1
     7     2    18 1
     8     3     8 1
     9     3    19 1
    10     4     5 1
    11     4    35 1
    12     4    37 1
    13     5     6 1
    14     5    11 1
    15     5    20 1
    16     6     7 1
    17     6     9 1
    18     6    10 1
    19     7     8 1
    20     7    21 1
    21     7    22 1
    22     8    23 1
    23     9    24 1
    24    10    25 1
    25    11    12 1
    26    11    26 1
    27    11    27 1
    28    12    13 1
    29    12    28 1
    30    12    29 1
    31    13    14 1
    32    13    30 1
    33    13    31 1
    34    14    32 1
    35    14    33 1
    36    14    34 1
    37    36     4 1
@<TRIPOS>SUBSTRUCTURE
     1 M1C         1 TEMP              0 ****  ****    0 ROOT
