@<TRIPOS>MOLECULE
molecule
   65    68     1     0     0
SMALL
bcc


@<TRIPOS>ATOM
      1 C1           0.0000     0.0000     0.0000 c3         1 M1L      -0.028100
      2 C2           3.5580     0.0050     1.2850 ca         1 M1L      -0.029000
      3 C3           4.2830     0.0100     0.1020 ca         1 M1L      -0.194900
      4 C4           3.6250     0.0090    -1.1330 ca         1 M1L       0.066000
      5 C5           2.2290     0.0010    -1.1710 ca         1 M1L      -0.108300
      6 C6           1.5090     0.0000     0.0000 ca         1 M1L      -0.020300
      7 C7           2.1690     0.0000     1.2340 ca         1 M1L      -0.092000
      8 C8          -0.5220    -0.4200    -1.3740 c3         1 M1L       0.037800
      9 N1           0.1530     0.3930    -2.3980 n3         1 M1L      -0.618600
     10 C10          1.5570    -0.0090    -2.5190 c3         1 M1L       0.152100
     11 N2           4.5650     0.0140    -2.1590 ns         1 M1L      -0.470500
     12 C11          5.8200     0.0190    -1.6790 c          1 M1L       0.647200
     13 O1           6.8400     0.0250    -2.3400 o          1 M1L      -0.595500
     14 C12          5.7370     0.0170    -0.1960 cc         1 M1L       0.312900
     15 N3           6.7220     0.0200     0.6550 n2         1 M1L      -0.287200
     16 C13         -0.5380     0.2920    -3.6900 c3         1 M1L       0.122100
     17 C14          0.9400    -0.9310     4.6630 cc         1 M1L      -0.074000
     18 C15          1.6740    -0.9300     3.4940 cd         1 M1L      -0.134000
     19 C16          1.3830    -0.0050     2.4930 cd         1 M1L       0.000000
     20 C17          0.3530     0.9150     2.6790 cd         1 M1L      -0.134000
     21 C18         -0.3740     0.9060     3.8520 cc         1 M1L      -0.074000
     22 C19         -0.0810    -0.0150     4.8420 cc         1 M1L      -0.658000
     23 S1          -1.0390    -0.0220     6.3780 s6         1 M1L       1.216400
     24 N4          -1.9790    -0.0550     7.8530 n3         1 M1L      -0.673400
     25 O2          -1.9090     1.3790     6.4920 oh         1 M1L      -0.549700
     26 O3          -0.0120    -0.1390     7.6680 oh         1 M1L      -0.549700
     27 C20         -1.2030    -0.6770     8.9080 c3         1 M1L       0.029600
     28 C21         -2.3200     1.3040     8.2400 c3         1 M1L       0.029600
     29 O4           6.4630    -0.0920     2.0270 os         1 M1L      -0.151300
     30 C22          7.6690    -0.1220     2.7370 c3         1 M1L       0.014100
     31 C23          7.4340     0.3760     4.1600 c3         1 M1L      -0.072400
     32 C24          7.5300     1.8980     4.1880 c3         1 M1L       0.131400
     33 O5           7.4300     2.3480     5.5110 oh         1 M1L      -0.615800
     34 C25          8.1990    -1.5530     2.7810 c          1 M1L       0.887600
     35 O6           9.3360    -1.7880     3.2680 o          1 M1L      -0.827800
     36 O7           7.5230    -2.4890     2.2800 o          1 M1L      -0.827800
     37 H11         -0.3280     0.8770     0.5460 hc         1 M1L       0.058700
     38 H12         -0.3280    -0.8780     0.5430 hc         1 M1L       0.058700
     39 H2           4.0860     0.1740     2.2160 ha         1 M1L       0.167000
     40 H81         -1.1560    -1.2820    -1.2100 h1         1 M1L       0.076700
     41 H82         -1.1570     0.3870    -1.7200 h1         1 M1L       0.076700
     42 H101         1.9040    -0.8880    -3.0510 h1         1 M1L       0.042200
     43 H102         1.8950     0.8670    -3.0600 h1         1 M1L       0.042200
     44 HN2          4.3650     0.0030    -3.1400 hn         1 M1L       0.332500
     45 H131        -0.1050     1.0000    -4.3870 h1         1 M1L       0.036033
     46 H132        -1.5890     0.5150    -3.5560 h1         1 M1L       0.036033
     47 H133        -0.4280    -0.7120    -4.0810 h1         1 M1L       0.036033
     48 H17          0.1080     1.6190     1.8930 ha         1 M1L       0.141500
     49 H18         -1.1730     1.6230     4.0000 ha         1 M1L       0.122000
     50 HO2         -1.5720     1.9010     7.2000 ho         1 M1L       0.485000
     51 HO3         -0.1070     0.6230     8.2160 ho         1 M1L       0.485000
     52 H201        -0.8370    -1.6380     8.5680 h1         1 M1L       0.011367
     53 H202        -1.8270    -0.8160     9.7820 h1         1 M1L       0.011367
     54 H203        -0.3630    -0.0400     9.1610 h1         1 M1L       0.011367
     55 H211        -1.4180     1.8990     8.3020 h1         1 M1L       0.011367
     56 H212        -2.8120     1.2920     9.2050 h1         1 M1L       0.011367
     57 H213        -2.9860     1.7330     7.5010 h1         1 M1L       0.011367
     58 H22          8.3930     0.5170     2.2460 h1         1 M1L       0.051700
     59 H231         6.4490     0.0700     4.4910 hc         1 M1L       0.070200
     60 H232         8.1840    -0.0450     4.8180 hc         1 M1L       0.070200
     61 H241         6.7240     2.3220     3.6000 h1         1 M1L       0.016200
     62 H242         8.4810     2.2080     3.7720 h1         1 M1L       0.016200
     63 HO5          7.9720     3.1110     5.6250 ho         1 M1L       0.387000
     64 H14          1.1770    -1.6360     5.4510 ha         1 M1L       0.122000
     65 H15          2.4530    -1.6670     3.3440 ha         1 M1L       0.141500
@<TRIPOS>BOND
     1     1     6 1
     2     1     8 1
     3     1    37 1
     4     1    38 1
     5     2     3 ar
     6     2     7 ar
     7     2    39 1
     8     3     4 ar
     9     3    14 1
    10     4     5 ar
    11     4    11 2
    12     5     6 ar
    13     5    10 1
    14     6     7 ar
    15     7    19 2
    16     8     9 1
    17     8    40 1
    18     8    41 1
    19     9    10 1
    20     9    16 1
    21    10    42 1
    22    10    43 1
    23    11    12 1
    24    11    44 1
    25    12    13 2
    26    12    14 1
    27    14    15 2
    28    15    29 1
    29    16    45 1
    30    16    46 1
    31    16    47 1
    32    17    18 2
    33    17    22 1
    34    17    64 1
    35    18    19 1
    36    18    65 1
    37    19    20 1
    38    20    21 2
    39    20    48 1
    40    21    22 1
    41    21    49 1
    42    22    23 2
    43    23    24 2
    44    23    25 1
    45    23    26 1
    46    24    27 1
    47    24    28 1
    48    25    50 1
    49    26    51 1
    50    27    52 1
    51    27    53 1
    52    27    54 1
    53    28    55 1
    54    28    56 1
    55    28    57 1
    56    29    30 1
    57    30    31 1
    58    30    34 1
    59    30    58 1
    60    31    32 1
    61    31    59 1
    62    31    60 1
    63    32    33 1
    64    32    61 1
    65    32    62 1
    66    33    63 1
    67    34    35 1
    68    34    36 1
@<TRIPOS>SUBSTRUCTURE
     1 M1L         1 TEMP              0 ****  ****    0 ROOT
