@<TRIPOS>MOLECULE
M1L
   66    69     1     0     0
SMALL
bcc


@<TRIPOS>ATOM
      1 C1         -0.2250   -0.2660   -1.5470 c3        1 M1L     -0.043100
      2 C2          2.0770    0.9500    1.2240 ca        1 M1L     -0.038000
      3 C3          3.2640    1.0360    0.5560 ca        1 M1L     -0.221900
      4 C4          3.3450    0.7550   -0.8490 ca        1 M1L      0.092000
      5 C5          2.1980    0.3720   -1.5470 ca        1 M1L     -0.121300
      6 C6          0.9900    0.1950   -0.8240 ca        1 M1L      0.012700
      7 C7          0.9360    0.4460    0.5440 ca        1 M1L     -0.103000
      8 C8          0.1110   -0.9630   -2.8640 c3        1 M1L      0.170800
      9 N1          1.0300   -0.1890   -3.6830 n3        1 M1L     -0.730600
     10 C10         2.2900    0.1090   -3.0180 c3        1 M1L      0.221100
     11 N2          4.6850    0.8650   -1.2560 n         1 M1L     -0.488500
     12 C11         5.5150    1.1930   -0.1530 c         1 M1L      0.636200
     13 O1          6.7280    1.3790   -0.2340 o         1 M1L     -0.556500
     14 C12         4.6210    1.2390    1.0850 cc        1 M1L      0.365900
     15 N3          5.0400    1.3250    2.3210 n2        1 M1L     -0.337200
     16 C13         1.2300   -0.7650   -4.9940 c3        1 M1L      0.158100
     17 C14        -0.1580   -1.4290    3.4170 cc        1 M1L     -0.030000
     18 C15        -0.0650   -1.2300    2.0450 cd        1 M1L     -0.151000
     19 C16        -0.0710    0.0900    1.5530 cd        1 M1L      0.032000
     20 C17        -0.5900    1.1150    2.3640 cd        1 M1L     -0.151000
     21 C18        -0.6860    0.8980    3.7350 cc        1 M1L     -0.030000
     22 C19        -0.2790   -0.3270    4.2800 cc        1 M1L     -0.627000
     23 S1          0.4500   -0.4780    5.8060 s6        1 M1L      1.179100
     24 N4          1.5720   -0.6490    8.3370 n3        1 M1L     -0.861200
     25 O2         -0.8690   -0.8760    6.8080 oh        1 M1L     -0.642700
     26 O3          0.2020    1.0740    6.3670 oh        1 M1L     -0.642700
     27 C20         2.6170   -1.6350    8.4510 c3        1 M1L      0.137100
     28 C21         1.9140    0.6300    8.9100 c3        1 M1L      0.137100
     29 O4          4.0690    1.4130    3.2160 os        1 M1L     -0.185300
     30 C22         4.3250    0.7920    4.5160 c3        1 M1L      0.105100
     31 C23         5.5000    1.4290    5.2350 c3        1 M1L     -0.139400
     32 C24         6.7840    0.6400    5.0420 c3        1 M1L      0.125400
     33 O5          7.8450    1.1790    5.8060 oh        1 M1L     -0.592800
     34 C25         3.0210    1.0280    5.2920 c         1 M1L      0.701100
     35 O6          2.8000    2.0440    5.9770 o         1 M1L     -0.625000
     36 O7          2.1330    0.0620    5.2830 os        1 M1L     -0.550800
     37 H11        -0.8790    0.6260   -1.7490 hc        1 M1L      0.067200
     38 H12        -0.8090   -0.9760   -0.9030 hc        1 M1L      0.067200
     39 H2          2.0170    1.2010    2.2980 ha        1 M1L      0.171000
     40 H81        -0.8420   -1.0980   -3.4500 h1        1 M1L      0.035700
     41 H82         0.5190   -1.9920   -2.6360 h1        1 M1L      0.035700
     42 H101        3.0440   -0.7240   -3.1690 h1        1 M1L      0.040700
     43 H102        2.7030    1.0310   -3.5240 h1        1 M1L      0.040700
     44 HN2         4.9830    0.8700   -2.1960 hn        1 M1L      0.344500
     45 H131        0.2360   -0.8430   -5.5080 h1        1 M1L      0.035033
     46 H132        1.7010   -1.7860   -4.9670 h1        1 M1L      0.035033
     47 H133        1.8910   -0.0830   -5.5900 h1        1 M1L      0.035033
     48 H17        -0.7860    2.1090    1.9380 ha        1 M1L      0.150000
     49 H18        -0.9690    1.7270    4.4070 ha        1 M1L      0.150000
     50 HO2        -1.3970   -0.1540    7.1460 ho        1 M1L      0.479500
     51 HO3         0.9910    1.5600    6.6420 ho        1 M1L      0.479500
     52 H201        2.2570   -2.6000    8.0070 h1        1 M1L      0.038700
     53 H202        3.5140   -1.2840    7.8750 h1        1 M1L      0.038700
     54 H203        2.9350   -1.8280    9.5120 h1        1 M1L      0.038700
     55 H211        2.6930    1.1180    8.2610 h1        1 M1L      0.038700
     56 H212        1.0010    1.2830    8.9220 h1        1 M1L      0.038700
     57 H213        2.3150    0.5590    9.9580 h1        1 M1L      0.038700
     58 H22         4.4700   -0.3120    4.3630 h1        1 M1L      0.074700
     59 H231        5.6420    2.4800    4.8670 hc        1 M1L      0.075700
     60 H232        5.2640    1.4980    6.3310 hc        1 M1L      0.075700
     61 H241        6.6250   -0.4380    5.3200 h1        1 M1L      0.051200
     62 H242        7.1470    0.7010    3.9800 h1        1 M1L      0.051200
     63 HO5         7.5530    1.2120    6.7250 ho        1 M1L      0.393000
     64 H15         0.1400   -2.0700    1.3660 ha        1 M1L      0.150000
     65 H41         0.7160   -0.9970    8.7360 hn        1 M1L      0.371800
     66 H14        -0.0370   -2.4420    3.8330 ha        1 M1L      0.150000
@<TRIPOS>BOND
     1    1    6 1   
     2    1    8 1   
     3    1   37 1   
     4    1   38 1   
     5    2    3 ar  
     6    2    7 ar  
     7    2   39 1   
     8    3    4 ar  
     9    3   14 1   
    10    4    5 ar  
    11    4   11 2   
    12    5    6 ar  
    13    5   10 1   
    14    6    7 ar  
    15    7   19 2   
    16    8    9 1   
    17    8   40 1   
    18    8   41 1   
    19    9   10 1   
    20    9   16 1   
    21   10   42 1   
    22   10   43 1   
    23   11   12 1   
    24   11   44 1   
    25   12   13 2   
    26   12   14 1   
    27   14   15 2   
    28   15   29 1   
    29   16   45 1   
    30   16   46 1   
    31   16   47 1   
    32   17   18 2   
    33   17   22 1   
    34   17   66 1   
    35   18   19 1   
    36   18   64 1   
    37   19   20 1   
    38   20   21 2   
    39   20   48 1   
    40   21   22 1   
    41   21   49 1   
    42   22   23 2   
    43   23   25 1   
    44   23   26 1   
    45   23   36 1   
    46   24   27 1   
    47   24   28 1   
    48   24   65 1   
    49   25   50 1   
    50   26   51 1   
    51   27   52 1   
    52   27   53 1   
    53   27   54 1   
    54   28   55 1   
    55   28   56 1   
    56   28   57 1   
    57   29   30 1   
    58   30   31 1   
    59   30   34 1   
    60   30   58 1   
    61   31   32 1   
    62   31   59 1   
    63   31   60 1   
    64   32   33 1   
    65   32   61 1   
    66   32   62 1   
    67   33   63 1   
    68   34   35 2   
    69   34   36 1   
@<TRIPOS>SUBSTRUCTURE
     1 M1L         1 TEMP              0 ****  ****    0 ROOT
