@<TRIPOS>MOLECULE
molecule
   27    27     1     0     0
SMALL
bcc


@<TRIPOS>ATOM
      1 O6           0.0000     0.0000     0.0000 oh         1 M1P      -0.531800
      2 C6           1.4290     0.0000     0.0000 c3         1 M1P       0.152400
      3 C5           1.9390     0.0000     1.4420 c3         1 M1P       0.147100
      4 O5           1.4610    -1.1630     2.1150 os         1 M1P      -0.358600
      5 C1           1.8040    -1.0350     3.4920 c3         1 M1P       0.332900
      6 O1           1.3400     0.2230     3.9830 os         1 M1P      -0.545200
      7 P           -0.1540    -0.0160     4.5370 p5         1 M1P       1.123900
      8 O1P         -0.1230    -1.0230     5.6210 o          1 M1P      -0.893833
      9 O2P         -0.7410     1.3700     5.1080 o          1 M1P      -0.893833
     10 O3P         -1.0910    -0.5440     3.3400 o          1 M1P      -0.893833
     11 C2           3.3220    -1.1150     3.6590 c3         1 M1P       0.098100
     12 O2           3.7950    -2.3610     3.1430 oh         1 M1P      -0.608800
     13 C3           3.9700     0.0400     2.8870 c3         1 M1P       0.129100
     14 O3           5.3920    -0.1060     2.9090 oh         1 M1P      -0.631800
     15 C4           3.4690     0.0030     1.4400 c3         1 M1P       0.109100
     16 O4           3.9440     1.1550     0.7400 oh         1 M1P      -0.619800
     17 HO6         -0.3140     0.1050    -0.8830 ho         1 M1P       0.355000
     18 H61          1.7900     0.8840    -0.5110 h1         1 M1P      -0.005300
     19 H62          1.7900    -0.8840    -0.5110 h1         1 M1P      -0.005300
     20 H5           1.5810     0.8840     1.9550 h1         1 M1P       0.112700
     21 H1           1.3400    -1.8380     4.0520 h2         1 M1P       0.120700
     22 H2           3.5750    -1.0330     4.7090 h1         1 M1P       0.042700
     23 HO2          3.9980    -2.9410     3.8580 ho         1 M1P       0.382000
     24 H3           3.6900     0.9820     3.3430 h1         1 M1P       0.081700
     25 HO3          5.7700     0.5800     3.4340 ho         1 M1P       0.381000
     26 H4           3.8310    -0.8960     0.9550 h1         1 M1P       0.042700
     27 HO4          4.6630     0.9100     0.1820 ho         1 M1P       0.378000
@<TRIPOS>BOND
     1     1     2 1
     2     1    17 1
     3     2     3 1
     4     2    18 1
     5     2    19 1
     6     3     4 1
     7     3    15 1
     8     3    20 1
     9     4     5 1
    10     5     6 1
    11     5    11 1
    12     5    21 1
    13     6     7 1
    14     7     8 1
    15     7     9 1
    16     7    10 1
    17    11    12 1
    18    11    13 1
    19    11    22 1
    20    12    23 1
    21    13    14 1
    22    13    15 1
    23    13    24 1
    24    14    25 1
    25    15    16 1
    26    15    26 1
    27    16    27 1
@<TRIPOS>SUBSTRUCTURE
     1 M1P         1 TEMP              0 ****  ****    0 ROOT
