@<TRIPOS>MOLECULE
M1P
   27    27     1     0     0
SMALL
bcc


@<TRIPOS>ATOM
      1 O6          0.3090   -0.2120   -0.5510 oh        1 M1P     -0.640800
      2 C6          1.7010   -0.1670   -0.3040 c3        1 M1P      0.146400
      3 C5          2.0210    0.0350    1.1770 c3        1 M1P      0.089100
      4 O5          1.4890   -1.0880    1.8560 os        1 M1P     -0.501600
      5 C1          1.5980   -0.9770    3.3030 c3        1 M1P      0.399900
      6 O1          1.0530    0.1960    3.6610 os        1 M1P     -0.543200
      7 P           0.0570    0.0740    5.1370 p5        1 M1P      1.307900
      8 O1P         1.1750   -0.1870    6.1060 o         1 M1P     -0.917167
      9 O2P        -0.6170    1.4090    5.1810 o         1 M1P     -0.917167
     10 O3P        -0.7750   -1.1260    4.7840 o         1 M1P     -0.917167
     11 C2          3.1240   -1.0560    3.6110 c3        1 M1P      0.040100
     12 O2          3.6840   -2.2890    3.1760 oh        1 M1P     -0.642800
     13 C3          3.8570    0.0990    2.9130 c3        1 M1P      0.093100
     14 O3          5.2630    0.0140    3.0970 oh        1 M1P     -0.622800
     15 C4          3.5400    0.1280    1.4050 c3        1 M1P      0.089100
     16 O4          4.0590    1.2980    0.7860 oh        1 M1P     -0.622800
     17 HO6        -0.1140   -0.5400    0.2590 ho        1 M1P      0.441000
     18 H61         2.1580   -1.1250   -0.6730 h1        1 M1P      0.019700
     19 H62         2.1000    0.6940   -0.9020 h1        1 M1P      0.019700
     20 H5          1.5250    0.9730    1.5620 h1        1 M1P      0.090700
     21 H1          1.0440   -1.8800    3.6940 h2        1 M1P      0.108700
     22 H2          3.2820   -1.0110    4.7240 h1        1 M1P      0.131700
     23 HO2         3.1920   -2.5480    2.3860 ho        1 M1P      0.397000
     24 H3          3.5420    1.0660    3.3940 h1        1 M1P      0.104700
     25 HO3         5.4890   -0.9240    3.0450 ho        1 M1P      0.396000
     26 H4          4.0710   -0.7190    0.8890 h1        1 M1P      0.049700
     27 HO4         3.7570    2.0450    1.3170 ho        1 M1P      0.399000
@<TRIPOS>BOND
     1    1    2 1   
     2    1   17 1   
     3    2    3 1   
     4    2   18 1   
     5    2   19 1   
     6    3    4 1   
     7    3   15 1   
     8    3   20 1   
     9    4    5 1   
    10    5    6 1   
    11    5   11 1   
    12    5   21 1   
    13    6    7 1   
    14    7    8 1   
    15    7    9 1   
    16    7   10 1   
    17   11   12 1   
    18   11   13 1   
    19   11   22 1   
    20   12   23 1   
    21   13   14 1   
    22   13   15 1   
    23   13   24 1   
    24   14   25 1   
    25   15   16 1   
    26   15   26 1   
    27   16   27 1   
@<TRIPOS>SUBSTRUCTURE
     1 M1P         1 TEMP              0 ****  ****    0 ROOT
