@<TRIPOS>MOLECULE
M1S
   45    46     1     0     0
SMALL
bcc


@<TRIPOS>ATOM
      1 C1         -0.0980   -0.1130    0.2380 c         1 M1S      0.672700
      2 C2          1.3720   -0.1820    0.1630 ca        1 M1S     -0.181600
      3 C3          1.9770   -0.5080   -1.0710 ca        1 M1S      0.219100
      4 C4          3.3670   -0.5390   -1.2180 ca        1 M1S     -0.261000
      5 C5          4.1670   -0.2390   -0.1100 ca        1 M1S      0.208100
      6 C6          3.5800    0.0650    1.1360 ca        1 M1S     -0.112600
      7 C7          2.1830    0.0890    1.2800 ca        1 M1S      0.075700
      8 C8          1.5840    0.3660    2.6170 c3        1 M1S     -0.176100
      9 C9          1.3660    1.8230    2.9310 c         1 M1S      0.577100
     10 C10         0.7290    2.0810    4.2730 c3        1 M1S     -0.179400
     11 C11        -0.6600    2.6720    4.1220 c3        1 M1S     -0.073400
     12 C12        -1.6620    1.6310    3.6700 c3        1 M1S     -0.093400
     13 C13        -2.9540    2.2560    3.1860 c3        1 M1S     -0.070400
     14 C14        -3.7960    1.2420    2.4240 c3        1 M1S     -0.060200
     15 C15        -4.4720    1.8350    1.2430 c2        1 M1S     -0.154200
     16 C16        -3.8650    2.1410    0.0910 c2        1 M1S     -0.177200
     17 C17        -2.4130    1.9970   -0.1640 c3        1 M1S     -0.079200
     18 C18        -2.0880    0.6770   -0.8450 c3        1 M1S      0.140400
     19 O2         -0.8440   -0.5240    1.1350 o         1 M1S     -0.565000
     20 O3          1.1410   -0.8240   -2.1100 oh        1 M1S     -0.469100
     21 O4          5.5170   -0.2770   -0.3320 oh        1 M1S     -0.484100
     22 CL1         4.6000    0.4110    2.4590 cl        1 M1S     -0.087400
     23 O5          1.6780    2.7420    2.1700 o         1 M1S     -0.520100
     24 O1         -0.6650    0.4830   -0.8530 os        1 M1S     -0.411900
     25 H4          3.8380   -0.7860   -2.1790 ha        1 M1S      0.164000
     26 H8C1        0.5910   -0.1620    2.7110 hc        1 M1S      0.104200
     27 H8C2        2.2450   -0.0610    3.4230 hc        1 M1S      0.104200
     28 H101        1.3810    2.8060    4.8310 hc        1 M1S      0.063700
     29 H102        0.6780    1.1340    4.8690 hc        1 M1S      0.063700
     30 H111       -0.6190    3.5160    3.3820 hc        1 M1S      0.052700
     31 H112       -0.9830    3.1030    5.1060 hc        1 M1S      0.052700
     32 H121       -1.8770    0.9200    4.5090 hc        1 M1S      0.049200
     33 H122       -1.2100    1.0250    2.8350 hc        1 M1S      0.049200
     34 H131       -2.7210    3.1310    2.5230 hc        1 M1S      0.042200
     35 H132       -3.5340    2.6530    4.0590 hc        1 M1S      0.042200
     36 H141       -4.5630    0.8030    3.1150 hc        1 M1S      0.055200
     37 H142       -3.1450    0.3910    2.0760 hc        1 M1S      0.055200
     38 H15        -5.5560    2.0060    1.3550 ha        1 M1S      0.118000
     39 H16        -4.4490    2.5490   -0.7520 ha        1 M1S      0.118000
     40 H171       -2.0530    2.8440   -0.8060 hc        1 M1S      0.060700
     41 H172       -1.8360    2.0450    0.8020 hc        1 M1S      0.060700
     42 H181       -2.3480    0.6960   -1.9360 h1        1 M1S      0.068700
     43 H182       -2.5990   -0.1810   -0.3360 h1        1 M1S      0.068700
     44 H3          1.6810   -0.9610   -2.9040 ho        1 M1S      0.429000
     45 HA          5.9760   -0.0200    0.4860 ho        1 M1S      0.438000
@<TRIPOS>BOND
     1    1    2 1
     2    1   19 2
     3    1   24 1
     4    2    3 ar
     5    2    7 ar
     6    3    4 ar
     7    3   20 1
     8    4    5 ar
     9    4   25 1
    10    5    6 ar
    11    5   21 1
    12    6    7 ar
    13    6   22 1
    14    7    8 1
    15    8    9 1
    16    8   26 1
    17    8   27 1
    18    9   10 1
    19    9   23 2
    20   10   11 1
    21   10   28 1
    22   10   29 1
    23   11   12 1
    24   11   30 1
    25   11   31 1
    26   12   13 1
    27   12   32 1
    28   12   33 1
    29   13   14 1
    30   13   34 1
    31   13   35 1
    32   14   15 1
    33   14   36 1
    34   14   37 1
    35   15   16 2
    36   15   38 1
    37   16   17 1
    38   16   39 1
    39   17   18 1
    40   17   40 1
    41   17   41 1
    42   18   24 1
    43   18   42 1
    44   18   43 1
    45   20   44 1
    46   21   45 1
@<TRIPOS>SUBSTRUCTURE
     1 M1S         1 TEMP              0 ****  ****    0 ROOT
