@<TRIPOS>MOLECULE
molecule
   25    24     1     0     0
SMALL
bcc


@<TRIPOS>ATOM
      1 CAA          0.0000     0.0000     0.0000 c3         1 M1T       0.126700
      2 OAB          4.0320     0.0000     0.0960 o          1 M1T      -0.490100
      3 OAC          8.9980     0.1160     4.0670 oh         1 M1T      -0.615300
      4 OAD          8.5010    -1.2210     2.2200 oh         1 M1T      -0.615300
      5 CAE          5.8450    -0.0000     2.0310 c3         1 M1T      -0.071400
      6 CAF          4.3670    -0.0010     2.4280 c3         1 M1T      -0.178400
      7 CAG          6.7120    -0.0010     3.2910 c3         1 M1T      -0.072400
      8 CAH          2.0110     0.0000     1.3050 c3         1 M1T       0.037400
      9 OAI          1.4300     0.0000     0.0000 os         1 M1T      -0.402600
     10 CAJ          3.5130    -0.0000     1.1870 c          1 M1T       0.556100
     11 CAK          8.1890    -0.0000     2.8940 c3         1 M1T       0.342900
     12 HAA         -0.3610     0.0000    -1.0210 h1         1 M1T       0.031700
     13 HAAA        -0.3610     0.8840     0.5110 h1         1 M1T       0.031700
     14 HAAB        -0.3610    -0.8850     0.5110 h1         1 M1T       0.031700
     15 HOAC         9.6950     0.7310     3.9080 ho         1 M1T       0.403000
     16 HOAD         9.3940    -1.1940     1.9180 ho         1 M1T       0.403000
     17 HAE          6.0610     0.8850     1.4450 hc         1 M1T       0.063700
     18 HAEA         6.0610    -0.8840     1.4440 hc         1 M1T       0.063700
     19 HAF          4.1510    -0.8850     3.0150 hc         1 M1T       0.064700
     20 HAFA         4.1510     0.8840     3.0150 hc         1 M1T       0.064700
     21 HAG          6.4960    -0.8860     3.8770 hc         1 M1T       0.060200
     22 HAGA         6.4950     0.8830     3.8790 hc         1 M1T       0.060200
     23 HAH          1.6910     0.8850     1.8430 h1         1 M1T       0.043700
     24 HAHA         1.6900    -0.8840     1.8430 h1         1 M1T       0.043700
     25 HAK          8.3860     0.8370     2.2350 h2         1 M1T       0.017700
@<TRIPOS>BOND
     1     1     9 1
     2     2    10 2
     3     3    11 1
     4     4    11 1
     5     5     6 1
     6     5     7 1
     7     6    10 1
     8     7    11 1
     9     8     9 1
    10     8    10 1
    11     1    12 1
    12     1    13 1
    13     1    14 1
    14     3    15 1
    15     4    16 1
    16     5    17 1
    17     5    18 1
    18     6    19 1
    19     6    20 1
    20     7    21 1
    21     7    22 1
    22     8    23 1
    23     8    24 1
    24    11    25 1
@<TRIPOS>SUBSTRUCTURE
     1 M1T         1 TEMP              0 ****  ****    0 ROOT
