@<TRIPOS>MOLECULE
M1T
   25    24     1     0     0
SMALL
bcc


@<TRIPOS>ATOM
      1 CAA        -0.0280   -0.0920    0.2930 c3        1 M1T      0.111700
      2 OAB         3.9790    0.5630   -0.1400 o         1 M1T     -0.492100
      3 OAC         8.9640    0.3250    3.9480 oh        1 M1T     -0.632800
      4 OAD         8.5210   -1.3380    2.5200 oh        1 M1T     -0.632800
      5 CAE         5.8960    0.1080    1.8760 c3        1 M1T     -0.078400
      6 CAF         4.4250    0.2320    2.2070 c3        1 M1T     -0.182400
      7 CAG         6.7440    0.2620    3.1180 c3        1 M1T     -0.104400
      8 CAH         2.1300   -0.1430    1.2480 c3        1 M1T      0.024400
      9 OAI         1.3230    0.3240    0.1750 os        1 M1T     -0.393600
     10 CAJ         3.5620    0.2540    0.9750 c         1 M1T      0.564100
     11 CAK         8.2140    0.0080    2.7940 c3        1 M1T      0.330900
     12 HAA        -0.5290    0.3500   -0.6040 h1        1 M1T      0.036033
     13 HAAA       -0.4830    0.3060    1.2340 h1        1 M1T      0.036033
     14 HAAB       -0.1010   -1.2070    0.2750 h1        1 M1T      0.036033
     15 HOAC        9.8920    0.1600    3.7420 ho        1 M1T      0.414500
     16 HOAD        8.1880   -1.8780    3.2470 ho        1 M1T      0.414500
     17 HAE         6.0980   -0.8910    1.4060 hc        1 M1T      0.064200
     18 HAEA        6.1750    0.8890    1.1190 hc        1 M1T      0.064200
     19 HAF         4.2390    1.1870    2.7680 hc        1 M1T      0.064700
     20 HAFA        4.1080   -0.6150    2.8690 hc        1 M1T      0.064700
     21 HAG         6.6460    1.2970    3.5370 hc        1 M1T      0.058700
     22 HAGA        6.4110   -0.4560    3.9120 hc        1 M1T      0.058700
     23 HAH         2.0700   -1.2640    1.3220 h1        1 M1T      0.048200
     24 HAHA        1.7780    0.3110    2.2130 h1        1 M1T      0.048200
     25 HAK         8.5570    0.5840    1.8890 h2        1 M1T      0.075700
@<TRIPOS>BOND
     1    1    9 1   
     2    1   12 1   
     3    1   13 1   
     4    1   14 1   
     5    2   10 2   
     6    3   11 1   
     7    3   15 1   
     8    4   11 1   
     9    4   16 1   
    10    5    6 1   
    11    5    7 1   
    12    5   17 1   
    13    5   18 1   
    14    6   10 1   
    15    6   19 1   
    16    6   20 1   
    17    7   11 1   
    18    7   21 1   
    19    7   22 1   
    20    8    9 1   
    21    8   10 1   
    22    8   23 1   
    23    8   24 1   
    24   11   25 1   
@<TRIPOS>SUBSTRUCTURE
     1 M1T         1 TEMP              0 ****  ****    0 ROOT
