@<TRIPOS>MOLECULE
molecule
   79    82     1     0     0
SMALL
bcc


@<TRIPOS>ATOM
      1 OA           0.0000     0.0000     0.0000 o          1 M1V      -0.636500
      2 C1A          1.2180     0.0000     0.0000 c          1 M1V       0.707700
      3 NA           2.0030     0.0000     1.0930 ns         1 M1V      -0.480100
      4 C2A          2.0450    -0.0080    -1.1500 cc         1 M1V      -0.212400
      5 CMA          1.5720    -0.0150    -2.5800 c3         1 M1V      -0.018900
      6 C3A          3.3370    -0.0060    -0.7380 cd         1 M1V      -0.033200
      7 CAA          4.5550    -0.0130    -1.6240 c3         1 M1V      -0.027200
      8 CBA          5.0430     1.4230    -1.8310 c3         1 M1V      -0.091100
      9 C4A          3.3300    -0.0020     0.6800 cd         1 M1V       0.002600
     10 CHA          4.4380     0.0000     1.4980 ce         1 M1V      -0.065200
     11 C1B          4.2840    -0.1490     2.8940 cc         1 M1V      -0.082100
     12 C2B          5.2410     0.1670     3.8590 cd         1 M1V      -0.146300
     13 CMB          6.6140     0.7270     3.5980 c3         1 M1V      -0.014800
     14 C3B          4.7010    -0.1250     5.0980 cd         1 M1V      -0.044300
     15 CAB          5.3810     0.0600     6.4310 c3         1 M1V      -0.014100
     16 CBB          5.0810     1.4600     6.9670 c3         1 M1V      -0.178400
     17 CGB          5.7610     1.6440     8.2990 c          1 M1V       0.892600
     18 O2B          5.6370     2.8050     8.9620 o          1 M1V      -0.849800
     19 O1B          6.4170     0.7460     8.7720 o          1 M1V      -0.849800
     20 NB           3.1690    -0.6230     3.5330 na         1 M1V      -0.140100
     21 C4B          3.4100    -0.6210     4.8900 cc         1 M1V      -0.129100
     22 CHB          2.5180    -1.0340     5.8840 ce         1 M1V       0.124800
     23 C1C          1.3970    -1.8060     5.5440 cd         1 M1V       0.016600
     24 C2C          0.3430    -2.1720     6.4200 cd         1 M1V      -0.049200
     25 CAC          0.2190    -1.8090     7.8770 c3         1 M1V      -0.020200
     26 CBC          0.9980    -2.8180     8.7230 c3         1 M1V      -0.177400
     27 CGC          0.8730    -2.4540    10.1800 c          1 M1V       0.892600
     28 O2C          0.2270    -1.4870    10.5090 o          1 M1V      -0.852800
     29 O1C          1.4810    -3.2040    11.1130 o          1 M1V      -0.852800
     30 C3C         -0.5310    -2.9140     5.6920 cc         1 M1V      -0.291800
     31 CMC         -1.8110    -3.5350     6.1900 c3         1 M1V      -0.017900
     32 NC           1.1350    -2.3190     4.3350 nd         1 M1V      -0.671300
     33 C4C         -0.0090    -2.9960     4.3780 cc         1 M1V       0.451900
     34 CHC         -0.6080    -3.6810     3.2900 ce         1 M1V      -0.153600
     35 C1D          0.0640    -3.7910     2.0930 cd         1 M1V       0.015600
     36 C2D         -0.4530    -4.3280     0.8920 cd         1 M1V      -0.051200
     37 CMD         -1.8380    -4.8850     0.6880 c3         1 M1V      -0.037900
     38 ND           1.3720    -3.3870     1.8430 ns         1 M1V      -0.458100
     39 C4D          1.6610    -3.6620     0.5570 c          1 M1V       0.696700
     40 OD           2.7240    -3.4380     0.0040 o          1 M1V      -0.649500
     41 C3D          0.5280    -4.2500    -0.0440 cc         1 M1V      -0.217400
     42 CAD          0.4250    -4.7100    -1.4750 c3         1 M1V      -0.007200
     43 CBD         -0.0740    -3.5570    -2.3470 c3         1 M1V      -0.090100
     44 H1           2.0020    -0.8630    -3.0990 hc         1 M1V       0.041033
     45 H2           1.8820     0.9010    -3.0680 hc         1 M1V       0.041033
     46 H3           0.4910    -0.0880    -2.6030 hc         1 M1V       0.041033
     47 H4           4.3020    -0.4500    -2.5830 hc         1 M1V       0.054200
     48 H5           5.3390    -0.5970    -1.1570 hc         1 M1V       0.054200
     49 H6           4.7730     1.7560    -2.8260 hc         1 M1V       0.035700
     50 H7           4.5820     2.0710    -1.0960 hc         1 M1V       0.035700
     51 H8           6.1200     1.4580    -1.7180 hc         1 M1V       0.035700
     52 H9           5.4300    -0.0010     1.0630 ha         1 M1V       0.156000
     53 H11          6.5410     1.7920     3.4130 hc         1 M1V       0.039033
     54 H12          7.2450     0.5530     4.4620 hc         1 M1V       0.039033
     55 H13          7.0450     0.2390     2.7320 hc         1 M1V       0.039033
     56 H14          6.4510    -0.0590     6.3100 hc         1 M1V       0.065700
     57 H15          5.0120    -0.6810     7.1300 hc         1 M1V       0.065700
     58 H16          4.0110     1.5800     7.0880 hc         1 M1V       0.031700
     59 H17          5.4510     2.2010     6.2680 hc         1 M1V       0.031700
     60 H19          2.3250    -0.9260     3.0880 hn         1 M1V       0.322700
     61 H20          2.6300    -0.6630     6.8950 ha         1 M1V       0.197000
     62 H22          0.6210    -0.8160     8.0370 hc         1 M1V       0.058700
     63 H23         -0.8260    -1.8260     8.1660 hc         1 M1V       0.058700
     64 H24          2.0420    -2.8000     8.4350 hc         1 M1V       0.034200
     65 H25          0.5950    -3.8110     8.5630 hc         1 M1V       0.034200
     66 H27         -1.7890    -4.6030     6.0070 hc         1 M1V       0.032700
     67 H28         -2.6530    -3.0970     5.6670 hc         1 M1V       0.032700
     68 H29         -1.9120    -3.3530     7.2530 hc         1 M1V       0.032700
     69 H31         -1.6320    -4.0250     3.3680 ha         1 M1V       0.143000
     70 H33         -2.1280    -5.4590     1.5600 hc         1 M1V       0.045033
     71 H34         -2.5370    -4.0700     0.5440 hc         1 M1V       0.045033
     72 H35         -1.8450    -5.5260    -0.1850 hc         1 M1V       0.045033
     73 H36          1.4000    -5.0300    -1.8230 hc         1 M1V       0.043700
     74 H37         -0.2710    -5.5380    -1.5390 hc         1 M1V       0.043700
     75 H38         -0.8360    -3.9200    -3.0250 hc         1 M1V       0.035033
     76 H39          0.7540    -3.1520    -2.9180 hc         1 M1V       0.035033
     77 H40         -0.4910    -2.7810    -1.7170 hc         1 M1V       0.035033
     78 H41          1.6860     0.0030     2.0420 hn         1 M1V       0.352500
     79 H10          1.9930    -2.9680     2.5070 hn         1 M1V       0.375500
@<TRIPOS>BOND
     1    43    42 1
     2    42    41 1
     3    40    39 2
     4    41    39 1
     5    41    36 2
     6    39    38 1
     7    36    37 1
     8    36    35 1
     9    38    35 1
    10    35    34 2
    11    31    30 1
    12    34    33 1
    13    30    33 1
    14    30    24 2
    15    28    27 1
    16    33    32 2
    17    26    27 1
    18    26    25 1
    19    24    25 1
    20    24    23 1
    21    27    29 1
    22    32    23 1
    23    23    22 2
    24    22    21 1
    25    20    21 1
    26    20    11 1
    27    21    14 2
    28    19    17 1
    29    18    17 1
    30    17    16 1
    31    11    10 1
    32    11    12 2
    33    10     9 2
    34    14    15 1
    35    14    12 1
    36     8     7 1
    37     7     6 1
    38    15    16 1
    39    12    13 1
    40     9     6 1
    41     9     3 1
    42     6     4 2
    43     3     2 1
    44     4     2 1
    45     4     5 1
    46     2     1 2
    47     5    44 1
    48     5    45 1
    49     5    46 1
    50     7    47 1
    51     7    48 1
    52     8    49 1
    53     8    50 1
    54     8    51 1
    55    10    52 1
    56    13    53 1
    57    13    54 1
    58    13    55 1
    59    15    56 1
    60    15    57 1
    61    16    58 1
    62    16    59 1
    63    20    60 1
    64    22    61 1
    65    25    62 1
    66    25    63 1
    67    26    64 1
    68    26    65 1
    69    31    66 1
    70    31    67 1
    71    31    68 1
    72    34    69 1
    73    37    70 1
    74    37    71 1
    75    37    72 1
    76    42    73 1
    77    42    74 1
    78    43    75 1
    79    43    76 1
    80    43    77 1
    81     3    78 1
    82    38    79 1
@<TRIPOS>SUBSTRUCTURE
     1 M1V         1 TEMP              0 ****  ****    0 ROOT
