@<TRIPOS>MOLECULE
M1V
   79    82     1     0     0
SMALL
bcc


@<TRIPOS>ATOM
      1 OA           0.0000     0.0000     0.0000 o          1 M1V      -0.679500
      2 C1A          1.2180     0.0000     0.0000 c          1 M1V       0.621700
      3 NA           2.0030     0.0000     1.0930 ns         1 M1V      -0.056100
      4 C2A          2.0450    -0.0080    -1.1500 cc         1 M1V      -0.232400
      5 CMA          1.5720    -0.0150    -2.5800 c3         1 M1V       0.096100
      6 C3A          3.3370    -0.0060    -0.7380 cd         1 M1V      -0.029200
      7 CAA          4.5550    -0.0130    -1.6240 c3         1 M1V       0.041800
      8 CBA          5.0430     1.4230    -1.8310 c3         1 M1V       0.003900
      9 C4A          3.3300    -0.0020     0.6800 cd         1 M1V      -0.162400
     10 CHA          4.4380     0.0000     1.4980 ce         1 M1V       0.005800
     11 C1B          4.2840    -0.1490     2.8940 cc         1 M1V      -0.287100
     12 C2B          5.2410     0.1670     3.8590 cd         1 M1V      -0.146300
     13 CMB          6.6140     0.7270     3.5980 c3         1 M1V       0.095200
     14 C3B          4.7010    -0.1250     5.0980 cd         1 M1V      -0.036300
     15 CAB          5.3810     0.0600     6.4310 c3         1 M1V       0.047900
     16 CBB          5.0810     1.4600     6.9670 c3         1 M1V      -0.131400
     17 CGB          5.7610     1.6440     8.2990 c          1 M1V       0.980600
     18 O2B          5.6370     2.8050     8.9620 o          1 M1V      -0.899300
     19 O1B          6.4170     0.7460     8.7720 o          1 M1V      -0.899300
     20 NB           3.1690    -0.6230     3.5330 na         1 M1V       0.407900
     21 C4B          3.4100    -0.6210     4.8900 cc         1 M1V      -0.331100
     22 CHB          2.5180    -1.0340     5.8840 ce         1 M1V       0.205800
     23 C1C          1.3970    -1.8060     5.5440 cd         1 M1V      -0.037400
     24 C2C          0.3430    -2.1720     6.4200 cd         1 M1V      -0.038200
     25 CAC          0.2190    -1.8090     7.8770 c3         1 M1V       0.041800
     26 CBC          0.9980    -2.8180     8.7230 c3         1 M1V      -0.130400
     27 CGC          0.8730    -2.4540    10.1800 c          1 M1V       0.981600
     28 O2C          0.2270    -1.4870    10.5090 o          1 M1V      -0.901800
     29 O1C          1.4810    -3.2040    11.1130 o          1 M1V      -0.901800
     30 C3C         -0.5310    -2.9140     5.6920 cc         1 M1V      -0.300800
     31 CMC         -1.8110    -3.5350     6.1900 c3         1 M1V       0.094100
     32 NC           1.1350    -2.3190     4.3350 nd         1 M1V      -0.598300
     33 C4C         -0.0090    -2.9960     4.3780 cc         1 M1V       0.417900
     34 CHC         -0.6080    -3.6810     3.2900 ce         1 M1V      -0.105600
     35 C1D          0.0640    -3.7910     2.0930 cd         1 M1V      -0.140400
     36 C2D         -0.4530    -4.3280     0.8920 cd         1 M1V      -0.049200
     37 CMD         -1.8380    -4.8850     0.6880 c3         1 M1V       0.073100
     38 ND           1.3720    -3.3870     1.8430 ns         1 M1V      -0.033100
     39 C4D          1.6610    -3.6620     0.5570 c          1 M1V       0.606700
     40 OD           2.7240    -3.4380     0.0040 o          1 M1V      -0.695500
     41 C3D          0.5280    -4.2500    -0.0440 cc         1 M1V      -0.238400
     42 CAD          0.4250    -4.7100    -1.4750 c3         1 M1V       0.066800
     43 CBD         -0.0740    -3.5570    -2.3470 c3         1 M1V      -0.005100
     44 H1           2.0100    -0.8570    -3.1020 hc         1 M1V       0.005367
     45 H2           1.8720     0.9060    -3.0650 hc         1 M1V       0.005367
     46 H3           0.4920    -0.0990    -2.6030 hc         1 M1V       0.005367
     47 H4           4.3020    -0.4500    -2.5830 hc         1 M1V       0.021700
     48 H5           5.3390    -0.5970    -1.1570 hc         1 M1V       0.021700
     49 H6           5.2060     1.6010    -2.8880 hc         1 M1V       0.002033
     50 H7           4.2970     2.1160    -1.4600 hc         1 M1V       0.002033
     51 H8           5.9720     1.5700    -1.2930 hc         1 M1V       0.002033
     52 H9           5.4300    -0.0010     1.0630 ha         1 M1V       0.125000
     53 H11          6.5460     1.7980     3.4540 hc         1 M1V       0.005367
     54 H12          7.2570     0.5170     4.4450 hc         1 M1V       0.005367
     55 H13          7.0280     0.2680     2.7080 hc         1 M1V       0.005367
     56 H14          6.4510    -0.0590     6.3100 hc         1 M1V       0.036200
     57 H15          5.0120    -0.6810     7.1300 hc         1 M1V       0.036200
     58 H16          4.0110     1.5800     7.0880 hc         1 M1V       0.006700
     59 H17          5.4510     2.2010     6.2680 hc         1 M1V       0.006700
     60 H19          2.3250    -0.9260     3.0880 hn         1 M1V       0.153700
     61 H20          2.6300    -0.6630     6.8950 ha         1 M1V       0.154000
     62 H22         -0.8260    -1.8260     8.1660 hc         1 M1V       0.031700
     63 H23          0.6210    -0.8160     8.0370 hc         1 M1V       0.031700
     64 H24          0.5950    -3.8110     8.5630 hc         1 M1V       0.009200
     65 H25          2.0420    -2.8000     8.4350 hc         1 M1V       0.009200
     66 H27         -1.9160    -3.3460     7.2510 hc         1 M1V       0.000700
     67 H28         -1.7860    -4.6040     6.0140 hc         1 M1V       0.000700
     68 H29         -2.6520    -3.1020     5.6610 hc         1 M1V       0.000700
     69 H31         -1.5790    -4.1450     3.4110 ha         1 M1V       0.113000
     70 H33         -1.9580    -5.7810     1.2850 hc         1 M1V       0.009033
     71 H34         -1.9800    -5.1260    -0.3580 hc         1 M1V       0.009033
     72 H35         -2.5720    -4.1480     0.9920 hc         1 M1V       0.009033
     73 H36          1.4000    -5.0300    -1.8230 hc         1 M1V       0.012200
     74 H37         -0.2710    -5.5380    -1.5390 hc         1 M1V       0.012200
     75 H38          0.7640    -3.1130    -2.8730 hc         1 M1V       0.004367
     76 H39         -0.5450    -2.8080    -1.7220 hc         1 M1V       0.004367
     77 H40         -0.7920    -3.9320    -3.0660 hc         1 M1V       0.004367
     78 H41          1.6860     0.0030     2.0420 hn         1 M1V       0.196500
     79 H10          1.9930    -2.9680     2.5070 hn         1 M1V       0.218500
@<TRIPOS>BOND
     1     1     2 2   
     2     2     3 1   
     3     2     4 1   
     4     3     9 1   
     5     3    78 1   
     6     4     5 1   
     7     4     6 2   
     8     5    44 1   
     9     5    45 1   
    10     5    46 1   
    11     6     7 1   
    12     6     9 1   
    13     7     8 1   
    14     7    47 1   
    15     7    48 1   
    16     8    49 1   
    17     8    50 1   
    18     8    51 1   
    19     9    10 2   
    20    10    11 1   
    21    10    52 1   
    22    11    12 2   
    23    11    20 1   
    24    12    13 1   
    25    12    14 1   
    26    13    53 1   
    27    13    54 1   
    28    13    55 1   
    29    14    15 1   
    30    14    21 2   
    31    15    16 1   
    32    15    56 1   
    33    15    57 1   
    34    16    17 1   
    35    16    58 1   
    36    16    59 1   
    37    17    18 1   
    38    17    19 1   
    39    20    21 1   
    40    20    60 1   
    41    21    22 1   
    42    22    23 2   
    43    22    61 1   
    44    23    24 1   
    45    23    32 1   
    46    24    25 1   
    47    24    30 2   
    48    25    26 1   
    49    25    62 1   
    50    25    63 1   
    51    26    27 1   
    52    26    64 1   
    53    26    65 1   
    54    27    28 1   
    55    27    29 1   
    56    30    31 1   
    57    30    33 1   
    58    31    66 1   
    59    31    67 1   
    60    31    68 1   
    61    32    33 2   
    62    33    34 1   
    63    34    35 2   
    64    34    69 1   
    65    35    36 1   
    66    35    38 1   
    67    36    37 1   
    68    36    41 2   
    69    37    70 1   
    70    37    71 1   
    71    37    72 1   
    72    38    39 1   
    73    38    79 1   
    74    39    40 2   
    75    39    41 1   
    76    41    42 1   
    77    42    43 1   
    78    42    73 1   
    79    42    74 1   
    80    43    75 1   
    81    43    76 1   
    82    43    77 1   
@<TRIPOS>SUBSTRUCTURE
     1 M1V         1 TEMP              0 ****  ****    0 ROOT
