@<TRIPOS>MOLECULE
M1W
   39    41     1     0     0
SMALL
bcc


@<TRIPOS>ATOM
      1 C1          0.0120    0.0000   -0.0030 c3        1 M1W      0.111700
      2 O2          1.4340   -0.0000    0.0130 os        1 M1W     -0.418600
      3 C3          1.9680   -0.0000    1.3300 c3        1 M1W      0.136400
      4 C4          3.4830   -0.0010    1.1480 c3        1 M1W     -0.121400
      5 C5          4.1450   -0.0010    2.5150 c3        1 M1W      0.109800
      6 N6          5.6370   -0.0020    2.4090 ny        1 M1W     -0.666800
      7 C7          6.3290   -0.0020    3.7510 c         1 M1W      0.494600
      8 O8          5.6470   -0.0010    4.7610 o         1 M1W     -0.351100
      9 C9          7.7860   -0.0020    3.6660 cc        1 M1W      0.363900
     10 N10         8.7110   -0.0020    4.6190 nd        1 M1W     -0.535000
     11 C11         9.9540   -0.0020    3.8940 cd        1 M1W      0.650500
     12 N12         9.7040   -0.0030    2.5480 nc        1 M1W     -0.311300
     13 O13         8.4050   -0.0030    2.3780 os        1 M1W     -0.155100
     14 C14        11.2520   -0.0020    4.5460 ca        1 M1W     -0.155500
     15 C15        11.3350    0.0030    5.9430 ca        1 M1W     -0.079000
     16 C16        12.5710    0.0040    6.6020 ca        1 M1W     -0.138000
     17 C17        13.7700   -0.0010    5.9020 ca        1 M1W     -0.077000
     18 C18        13.7090   -0.0060    4.5040 ca        1 M1W     -0.066200
     19 C19        12.4400   -0.0070    3.7940 ca        1 M1W     -0.040800
     20 C20        12.7660   -0.0130    2.3900 cc        1 M1W     -0.209200
     21 C21        14.1590   -0.0160    2.2880 cd        1 M1W     -0.065100
     22 N22        14.7340   -0.0120    3.5540 na        1 M1W     -0.178400
     23 H11C       -0.3850   -0.9170    0.4970 h1        1 M1W      0.049700
     24 H12C       -0.3850    0.9180    0.4970 h1        1 M1W      0.049700
     25 H13C       -0.2440    0.0000   -1.0930 h1        1 M1W      0.049700
     26 H31C        1.6290   -0.9160    1.8840 h1        1 M1W      0.042700
     27 H32C        1.6300    0.9160    1.8830 h1        1 M1W      0.042700
     28 H41C        3.7740    0.9060    0.5530 hc        1 M1W      0.083700
     29 H42C        3.7730   -0.9070    0.5530 hc        1 M1W      0.083700
     30 H51C        3.8420   -0.9150    3.1040 hx        1 M1W      0.116700
     31 H52C        3.8430    0.9140    3.1040 hx        1 M1W      0.116700
     32 H6          5.9480   -0.8310    1.8830 hn        1 M1W      0.474800
     33 H15        10.4220    0.0070    6.5600 ha        1 M1W      0.150000
     34 H16        12.5870    0.0080    7.7040 ha        1 M1W      0.151000
     35 H17        14.7340   -0.0010    6.4310 ha        1 M1W      0.151000
     36 H22        15.6990   -0.0130    3.7590 hn        1 M1W      0.313700
     37 H20        12.0760   -0.0150    1.5520 ha        1 M1W      0.170000
     38 H21        14.7840   -0.0200    1.3900 h4        1 M1W      0.181000
     39 H62         5.9490    0.8280    1.8830 hn        1 M1W      0.474800
@<TRIPOS>BOND
     1    1    2 1   
     2    1   23 1   
     3    1   24 1   
     4    1   25 1   
     5    2    3 1   
     6    3    4 1   
     7    3   26 1   
     8    3   27 1   
     9    4    5 1   
    10    4   28 1   
    11    4   29 1   
    12    5    6 1   
    13    5   30 1   
    14    5   31 1   
    15    6    7 1   
    16    6   32 1   
    17    6   39 1   
    18    7    8 2   
    19    7    9 1   
    20    9   10 2   
    21    9   13 1   
    22   10   11 1   
    23   11   12 2   
    24   11   14 1   
    25   12   13 1   
    26   14   15 ar  
    27   14   19 ar  
    28   15   16 ar  
    29   15   33 1   
    30   16   17 ar  
    31   16   34 1   
    32   17   18 ar  
    33   17   35 1   
    34   18   19 ar  
    35   18   22 1   
    36   19   20 1   
    37   20   21 2   
    38   20   37 1   
    39   21   22 1   
    40   21   38 1   
    41   22   36 1   
@<TRIPOS>SUBSTRUCTURE
     1 M1W         1 TEMP              0 ****  ****    0 ROOT
