@<TRIPOS>MOLECULE
M21
   41    40     1     0     0
SMALL
bcc


@<TRIPOS>ATOM
      1 C1          0.8670    1.2370   -0.4080 c3        1 M21     -0.066900
      2 C2         -0.0460    0.7100    0.6230 c2        1 M21     -0.155200
      3 C3          0.3330    0.2300    1.8170 ce        1 M21     -0.143000
      4 C4          1.7030    0.1580    2.2760 ce        1 M21     -0.145000
      5 C5          2.0860   -0.3180    3.4690 c2        1 M21     -0.153200
      6 C6          1.1670   -0.8450    4.5050 c3        1 M21     -0.052200
      7 C7          1.9070   -1.3050    5.7450 c3        1 M21     -0.078400
      8 C8          0.9480   -1.8380    6.7870 c3        1 M21     -0.079400
      9 C9          1.6840   -2.2970    8.0270 c3        1 M21     -0.079400
     10 C10         0.7250   -2.8310    9.0690 c3        1 M21     -0.079400
     11 C11         1.4620   -3.2900   10.3090 c3        1 M21     -0.078400
     12 C12         0.5030   -3.8250   11.3510 c3        1 M21     -0.078400
     13 C13         1.2430   -4.2810   12.5890 c3        1 M21     -0.084400
     14 C14         0.2700   -4.8160   13.6260 c3        1 M21      0.131400
     15 O           1.0390   -5.2200   14.7480 oh        1 M21     -0.601800
     16 H11C        1.5880    0.4470   -0.7390 hc        1 M21      0.042367
     17 H12C        0.2980    1.5870   -1.3040 hc        1 M21      0.042367
     18 H13C        1.4590    2.0990   -0.0110 hc        1 M21      0.042367
     19 H2         -1.1170    0.7240    0.3610 ha        1 M21      0.118000
     20 H3         -0.4320   -0.1430    2.5220 ha        1 M21      0.120000
     21 H4          2.4660    0.5300    1.5690 ha        1 M21      0.121000
     22 H5          3.1580   -0.3330    3.7310 ha        1 M21      0.121000
     23 H61C        0.4240   -0.0500    4.7890 hc        1 M21      0.050700
     24 H62C        0.5770   -1.7050    4.0830 hc        1 M21      0.050700
     25 H71C        2.6450   -2.1030    5.4690 hc        1 M21      0.041700
     26 H72C        2.4910   -0.4480    6.1740 hc        1 M21      0.041700
     27 H81C        0.2090   -1.0390    7.0620 hc        1 M21      0.039700
     28 H82C        0.3640   -2.6940    6.3580 hc        1 M21      0.039700
     29 H91C        2.2680   -1.4410    8.4570 hc        1 M21      0.040700
     30 H92C        2.4230   -3.0950    7.7520 hc        1 M21      0.040700
     31 H101        0.1420   -3.6880    8.6400 hc        1 M21      0.039700
     32 H102       -0.0140   -2.0340    9.3440 hc        1 M21      0.039700
     33 H111        2.2020   -4.0880   10.0350 hc        1 M21      0.041700
     34 H112        2.0450   -2.4330   10.7400 hc        1 M21      0.041700
     35 H121       -0.0790   -4.6820   10.9210 hc        1 M21      0.039700
     36 H122       -0.2370   -3.0270   11.6260 hc        1 M21      0.039700
     37 H131        1.9810   -5.0830   12.3270 hc        1 M21      0.055700
     38 H132        1.8230   -3.4300   13.0310 hc        1 M21      0.055700
     39 H141       -0.3010   -5.6930   13.2170 h1        1 M21      0.019700
     40 H142       -0.4610   -4.0190   13.9300 h1        1 M21      0.019700
     41 H           0.4150   -5.5580   15.4010 ho        1 M21      0.398000
@<TRIPOS>BOND
     1    1    2 1   
     2    1   16 1   
     3    1   17 1   
     4    1   18 1   
     5    2    3 2   
     6    2   19 1   
     7    3    4 1   
     8    3   20 1   
     9    4    5 2   
    10    4   21 1   
    11    5    6 1   
    12    5   22 1   
    13    6    7 1   
    14    6   23 1   
    15    6   24 1   
    16    7    8 1   
    17    7   25 1   
    18    7   26 1   
    19    8    9 1   
    20    8   27 1   
    21    8   28 1   
    22    9   10 1   
    23    9   29 1   
    24    9   30 1   
    25   10   11 1   
    26   10   31 1   
    27   10   32 1   
    28   11   12 1   
    29   11   33 1   
    30   11   34 1   
    31   12   13 1   
    32   12   35 1   
    33   12   36 1   
    34   13   14 1   
    35   13   37 1   
    36   13   38 1   
    37   14   15 1   
    38   14   39 1   
    39   14   40 1   
    40   15   41 1   
@<TRIPOS>SUBSTRUCTURE
     1 M21         1 TEMP              0 ****  ****    0 ROOT
