@<TRIPOS>MOLECULE
molecule
   41    40     1     0     0
SMALL
bcc


@<TRIPOS>ATOM
      1 C1           0.0000     0.0000     0.0000 c3         1 M21      -0.052900
      2 C2           1.5070     0.0000     0.0000 c2         1 M21      -0.264200
      3 C3           2.1720     0.0000     1.1500 ce         1 M21      -0.203000
      4 C4           1.4370     0.0010     2.4240 ce         1 M21       0.023000
      5 C5           2.1020     0.0010     3.5750 c2         1 M21      -0.262200
      6 C6           1.3490     0.0010     4.8810 c3         1 M21      -0.032200
      7 C7           1.8110    -1.1810     5.7350 c3         1 M21      -0.077400
      8 C8           1.0460    -1.1810     7.0610 c3         1 M21      -0.083400
      9 C9           1.5080    -2.3620     7.9160 c3         1 M21      -0.081400
     10 C10          0.7440    -2.3620     9.2410 c3         1 M21      -0.082400
     11 C11          1.2060    -3.5430    10.0970 c3         1 M21      -0.080400
     12 C12          0.4420    -3.5430    11.4230 c3         1 M21      -0.082400
     13 C13          0.9040    -4.7250    12.2780 c3         1 M21      -0.081400
     14 C14          0.1390    -4.7240    13.6030 c3         1 M21       0.140400
     15 O            0.5710    -5.8280    14.4020 oh         1 M21      -0.612800
     16 H11C        -0.3610    -0.9820     0.2810 hc         1 M21       0.047367
     17 H12C        -0.3610     0.7340     0.7100 hc         1 M21       0.047367
     18 H13C        -0.3610     0.2470    -0.9910 hc         1 M21       0.047367
     19 H2           0.8960     0.8750     0.1850 ha         1 M21       0.189000
     20 H3           1.7060    -0.8750     1.5880 ha         1 M21       0.079000
     21 H4           0.3530     0.0010     2.4250 ha         1 M21       0.134000
     22 H5           3.1850     0.0010     3.5750 ha         1 M21       0.150000
     23 H61C         0.2870    -0.0870     4.6860 hc         1 M21       0.042700
     24 H62C         1.5430     0.9260     5.4090 hc         1 M21       0.042700
     25 H71C         2.8730    -1.0930     5.9310 hc         1 M21       0.044700
     26 H72C         1.6170    -2.1070     5.2070 hc         1 M21       0.044700
     27 H81C         1.2390    -0.2550     7.5890 hc         1 M21       0.040200
     28 H82C        -0.0160    -1.2700     6.8650 hc         1 M21       0.040200
     29 H91C         2.5700    -2.2730     8.1110 hc         1 M21       0.042700
     30 H92C         1.3150    -3.2880     7.3880 hc         1 M21       0.042700
     31 H101         0.9370    -1.4360     9.7700 hc         1 M21       0.041200
     32 H102        -0.3180    -2.4510     9.0460 hc         1 M21       0.041200
     33 H111         2.2680    -3.4540    10.2930 hc         1 M21       0.043700
     34 H112         1.0130    -4.4690     9.5690 hc         1 M21       0.043700
     35 H121        -0.6200    -3.6330    11.2270 hc         1 M21       0.040700
     36 H122         0.6350    -2.6180    11.9510 hc         1 M21       0.040700
     37 H131         1.9660    -4.6350    12.4740 hc         1 M21       0.054200
     38 H132         0.7110    -5.6500    11.7500 hc         1 M21       0.054200
     39 H141        -0.9230    -4.8140    13.4070 h1         1 M21       0.018700
     40 H142         0.3320    -3.7990    14.1320 h1         1 M21       0.018700
     41 H            0.1000    -5.8290    15.2180 ho         1 M21       0.401000
@<TRIPOS>BOND
     1     1     2 1
     2     2     3 2
     3     3     4 1
     4     4     5 2
     5     5     6 1
     6     6     7 1
     7     7     8 1
     8     8     9 1
     9     9    10 1
    10    10    11 1
    11    11    12 1
    12    12    13 1
    13    13    14 1
    14    14    15 1
    15     1    16 1
    16     1    17 1
    17     1    18 1
    18     2    19 1
    19     3    20 1
    20     4    21 1
    21     5    22 1
    22     6    23 1
    23     6    24 1
    24     7    25 1
    25     7    26 1
    26     8    27 1
    27     8    28 1
    28     9    29 1
    29     9    30 1
    30    10    31 1
    31    10    32 1
    32    11    33 1
    33    11    34 1
    34    12    35 1
    35    12    36 1
    36    13    37 1
    37    13    38 1
    38    14    39 1
    39    14    40 1
    40    15    41 1
@<TRIPOS>SUBSTRUCTURE
     1 M21         1 TEMP              0 ****  ****    0 ROOT
