@<TRIPOS>MOLECULE
M22
   41    44     1     0     0
SMALL
bcc


@<TRIPOS>ATOM
      1 C            0.0000     0.0000     0.0000 ca         1 M22       0.201100
      2 C1           1.3880     0.0000     0.0000 ca         1 M22      -0.087600
      3 C2           2.0810     0.0000     1.1970 ca         1 M22      -0.042000
      4 C3           1.3930    -0.0010     2.3950 ca         1 M22      -0.273000
      5 C4           0.0050    -0.0030     2.4010 ca         1 M22       0.199100
      6 C5          -0.6920    -0.0000     1.2020 ca         1 M22      -0.245000
      7 C6          -2.7460    -1.1710    -1.1030 ca         1 M22      -0.101000
      8 C7          -2.0380     0.0230    -1.1280 ca         1 M22       0.142100
      9 C8          -2.7150     1.2310    -1.1030 ca         1 M22      -0.089000
     10 C9          -4.1090     1.2440    -1.0530 ca         1 M22       0.047000
     11 C10         -4.8140     0.0390    -1.0290 ca         1 M22      -0.079000
     12 C11         -4.1290    -1.1610    -1.0540 ca         1 M22      -0.044600
     13 O           -0.6800     0.0060    -1.1760 os         1 M22      -0.210200
     14 Cl          -5.0060    -2.6580    -1.0240 cl         1 M22       0.000600
     15 O12         -0.6700    -0.0040     3.5790 os         1 M22      -0.278900
     16 C13          0.1110    -0.0050     4.7760 c3         1 M22       0.206100
     17 C14         -0.8030    -0.0070     5.9740 cc         1 M22       0.386900
     18 N           -1.2680    -1.0600     6.5830 nd         1 M22      -0.604100
     19 N15         -2.0830    -0.6750     7.6530 na         1 M22       0.420900
     20 C16         -1.3210     1.1720     6.6620 ca         1 M22      -0.221900
     21 C17         -2.1280     0.6930     7.7120 ca         1 M22      -0.205200
     22 C18         -2.7690     1.6020     8.5510 ca         1 M22      -0.101000
     23 C19         -2.6130     2.9430     8.3450 ca         1 M22      -0.075000
     24 C20         -1.8210     3.4170     7.3070 ca         1 M22      -0.142000
     25 C21         -1.1710     2.5500     6.4770 ca         1 M22      -0.039000
     26 Cl2          2.2570     0.0010    -1.5030 cl         1 M22      -0.007400
     27 C23         -4.8160     2.4900    -1.0260 cg         1 M22       0.223800
     28 N24         -5.3890     3.4700    -0.9930 n1         1 M22      -0.363800
     29 H2           3.1000     0.0360     1.5640 ha         1 M22       0.127000
     30 H3           2.1050    -0.1810     3.1920 ha         1 M22       0.129000
     31 H5          -1.7370    -0.1930     1.4090 ha         1 M22       0.145000
     32 H8          -2.3500     2.2440    -1.2240 ha         1 M22       0.133000
     33 H10         -5.8720    -0.0500    -0.8160 ha         1 M22       0.126000
     34 H13          0.6730    -0.9310     4.7670 h1         1 M22       0.002200
     35 H13A         1.0230     0.5740     4.8670 h1         1 M22       0.002200
     36 HN15        -2.4600    -1.2540     8.3760 hn         1 M22       0.153700
     37 H18         -3.5420     1.2400     9.2180 ha         1 M22       0.105000
     38 H19         -3.3960     3.5810     8.7360 ha         1 M22       0.104000
     39 H20         -1.7580     4.4880     7.1590 ha         1 M22       0.109000
     40 H21         -0.1990     3.0140     6.3570 ha         1 M22       0.116000
     41 H6          -2.3020    -2.1570    -1.0370 ha         1 M22       0.132000
@<TRIPOS>BOND
     1     1     2 ar  
     2     1     6 ar  
     3     1    13 1   
     4     2     3 ar  
     5     2    26 1   
     6     3     4 ar  
     7     3    29 1   
     8     4     5 ar  
     9     4    30 1   
    10     5     6 ar  
    11     5    15 1   
    12     6    31 1   
    13     7     8 ar  
    14     7    12 ar  
    15     7    41 1   
    16     8     9 ar  
    17     8    13 1   
    18     9    10 ar  
    19     9    32 1   
    20    10    11 ar  
    21    10    27 1   
    22    11    12 ar  
    23    11    33 1   
    24    12    14 1   
    25    15    16 1   
    26    16    17 1   
    27    16    34 1   
    28    16    35 1   
    29    17    18 2   
    30    17    20 1   
    31    18    19 1   
    32    19    21 1   
    33    19    36 1   
    34    20    21 ar  
    35    20    25 ar  
    36    21    22 ar  
    37    22    23 ar  
    38    22    37 1   
    39    23    24 ar  
    40    23    38 1   
    41    24    25 ar  
    42    24    39 1   
    43    25    40 1   
    44    27    28 3   
@<TRIPOS>SUBSTRUCTURE
     1 M22         1 TEMP              0 ****  ****    0 ROOT
