@<TRIPOS>MOLECULE
molecule
   40    42     1     0     0
SMALL
bcc


@<TRIPOS>ATOM
      1 Br           0.0000     0.0000     0.0000 br         1 M23      -0.094100
      2 C1           8.2980    -0.0190    -3.8730 ca         1 M23       0.743200
      3 N2           8.4040     1.0460    -4.6540 nb         1 M23      -0.779000
      4 C3           7.5740     2.0780    -4.5360 ca         1 M23       0.938900
      5 N4           6.6000     2.1130    -3.6470 nb         1 M23      -0.744000
      6 C5           6.4090     1.0830    -2.8080 ca         1 M23       0.452600
      7 C6           7.2700    -0.0390    -2.8970 ca         1 M23      -0.295600
      8 C7           7.0930    -1.1280    -2.0340 ca         1 M23      -0.090000
      9 C8           6.0910    -1.1040    -1.1120 ca         1 M23      -0.071300
     10 C9           5.2310    -0.0010    -1.0140 cp         1 M23       0.001000
     11 C10          5.3860     1.0890    -1.8540 ca         1 M23      -0.165300
     12 N12          7.7380     3.1600    -5.3820 nv         1 M23      -1.058500
     13 C13          5.9040    -2.2800    -0.1870 c3         1 M23      -0.048800
     14 C14          4.1490     0.0000     0.0000 cp         1 M23      -0.077000
     15 C15          4.4630     0.0000     1.3630 ca         1 M23       0.169100
     16 C16          3.4450     0.0010     2.3030 ca         1 M23      -0.224000
     17 C17          2.1250     0.0010     1.8940 ca         1 M23      -0.059000
     18 C18          1.8110     0.0000     0.5460 ca         1 M23      -0.059900
     19 C19          2.8150     0.0050    -0.4010 ca         1 M23      -0.052000
     20 C22          6.0050     0.0000     3.1710 c3         1 M23       0.131400
     21 C23          7.5140    -0.0010     3.4270 c3         1 M23      -0.092100
     22 H7           7.7500    -1.9860    -2.1000 ha         1 M23       0.142000
     23 H10          4.7190     1.9400    -1.7740 ha         1 M23       0.157000
     24 HN11        10.0410    -1.0810    -3.5290 hn         1 M23       0.441800
     25 HN1A         8.9340    -1.8370    -4.6280 hn         1 M23       0.441800
     26 HN12         7.1550     3.2570    -6.1900 hn         1 M23       0.442800
     27 HN1B         8.4390     3.8470    -5.1860 hn         1 M23       0.442800
     28 H13          6.5480    -2.1650     0.6770 hc         1 M23       0.046700
     29 H13A         6.1590    -3.1940    -0.7090 hc         1 M23       0.046700
     30 H13B         4.8710    -2.3240     0.1360 hc         1 M23       0.046700
     31 H16          3.6850     0.0010     3.3590 ha         1 M23       0.143000
     32 H17          1.3320     0.0010     2.6330 ha         1 M23       0.145000
     33 H19          2.5660    -0.0380    -1.4550 ha         1 M23       0.156000
     34 H22          5.5650     0.8860     3.6120 h1         1 M23       0.036200
     35 H22A         5.5620    -0.8830     3.6160 h1         1 M23       0.036200
     36 H23          7.9310    -0.9530     3.1220 hc         1 M23       0.049700
     37 H23A         7.9770     0.7960     2.8570 hc         1 M23       0.049700
     38 H23B         7.7010     0.1540     4.4830 hc         1 M23       0.049700
     39 O21          5.7610    -0.0010     1.7630 os         1 M23      -0.317900
     40 N11          9.1620    -1.0850    -4.0090 nv         1 M23      -1.080500
@<TRIPOS>BOND
     1     1    18 1
     2     2     3 ar
     3     2     7 ar
     4     2    40 1
     5     3     4 ar
     6     4     5 ar
     7     4    12 1
     8     5     6 ar
     9     6     7 ar
    10     6    11 ar
    11     7     8 ar
    12     8     9 ar
    13     9    10 ar
    14     9    13 1
    15    10    11 ar
    16    10    14 1
    17    14    15 ar
    18    14    19 ar
    19    15    16 ar
    20    15    39 1
    21    16    17 ar
    22    17    18 ar
    23    18    19 ar
    24    39    20 1
    25    20    21 1
    26     8    22 1
    27    11    23 1
    28    40    24 1
    29    40    25 1
    30    12    26 1
    31    12    27 1
    32    13    28 1
    33    13    29 1
    34    13    30 1
    35    16    31 1
    36    17    32 1
    37    19    33 1
    38    20    34 1
    39    20    35 1
    40    21    36 1
    41    21    37 1
    42    21    38 1
@<TRIPOS>SUBSTRUCTURE
     1 M23         1 TEMP              0 ****  ****    0 ROOT
