@<TRIPOS>MOLECULE
M24
   63    68     1     0     0
SMALL
bcc


@<TRIPOS>ATOM
      1 P           1.1970   -1.8170   -0.4870 p5        1 M24      1.455800
      2 N1         -7.2060   -1.8280   -2.9930 nb        1 M24     -0.801000
      3 C2         -6.7350   -2.9530   -3.5990 ca        1 M24      0.660900
      4 N3         -5.4680   -3.3960   -3.7580 nb        1 M24     -0.725000
      5 C4         -4.5400   -2.5520   -3.2100 ca        1 M24      0.450800
      6 C5         -4.8920   -1.3100   -2.5290 ca        1 M24     -0.215200
      7 C6         -6.2810   -0.9860   -2.4250 ca        1 M24      0.726200
      8 N6         -6.6790    0.1320   -1.7140 nh        1 M24     -0.946500
      9 N7         -3.7270   -0.6560   -2.0980 nc        1 M24     -0.569100
     10 C8         -2.7120   -1.4420   -2.4850 cd        1 M24      0.436700
     11 N9         -3.1370   -2.6050   -3.1860 na        1 M24     -0.281000
     12 C1'        -2.3400   -3.7090   -3.6680 c3        1 M24      0.214800
     13 O1P         2.6410   -1.7140   -0.2780 o         1 M24     -0.806500
     14 C2'        -1.0210   -3.2630   -4.3850 c3        1 M24      0.127100
     15 O2'        -0.9340   -3.9040   -5.6350 oh        1 M24     -0.586800
     16 C24         0.4030   -0.4810    1.5380 c         1 M24      0.684700
     17 O25         1.0000    0.3730    0.8620 o         1 M24     -0.577000
     18 C26        -0.2610   -0.2930    2.8390 ca        1 M24     -0.121600
     19 C27        -0.9080   -1.3650    3.4630 ca        1 M24     -0.046000
     20 C28        -1.5280   -1.1750    4.6970 ca        1 M24     -0.167000
     21 C29        -1.5040    0.0740    5.3130 ca        1 M24     -0.072000
     22 O2P         0.3790   -1.6990    0.9950 os        1 M24     -0.538500
     23 C3'         0.0970   -3.6350   -3.3940 c3        1 M24      0.070100
     24 O3'         1.0550   -4.4240   -4.0780 oh        1 M24     -0.615800
     25 C30        -0.8550    1.1510    4.6900 ca        1 M24     -0.164500
     26 C31        -0.2330    0.9670    3.4470 ca        1 M24     -0.039000
     27 C32        -0.8260    2.4600    5.3350 cc        1 M24      0.602500
     28 N33        -0.5810    3.6560    4.7280 nd        1 M24     -0.357300
     29 O34        -0.6390    4.5870    5.6500 os        1 M24     -0.125100
     30 C35        -0.9370    3.9680    6.9030 cd        1 M24      0.545900
     31 N36        -1.0580    2.6510    6.7320 nc        1 M24     -0.682000
     32 C37        -1.0490    4.8090    8.0750 ca        1 M24     -0.176500
     33 C38        -1.2760    4.2200    9.3290 ca        1 M24     -0.059000
     34 C39        -1.3870    5.0090   10.4700 ca        1 M24     -0.159000
     35 O3P         0.3220   -1.2030   -1.5060 o         1 M24     -0.806500
     36 C4'        -0.5790   -4.4450   -2.2710 c3        1 M24      0.076100
     37 O4'        -1.9680   -4.5960   -2.6060 os        1 M24     -0.419600
     38 C40        -1.2710    6.3970   10.3790 ca        1 M24     -0.084000
     39 C41        -1.0460    7.0050    9.1500 ca        1 M24     -0.181000
     40 C42        -0.9330    6.2160    7.9870 ca        1 M24      0.172900
     41 F43        -0.7150    6.8210    6.8000 f         1 M24     -0.112900
     42 C5'        -0.4610   -3.7820   -0.8900 c3        1 M24      0.183400
     43 O5'         0.8620   -3.4310   -0.6350 os        1 M24     -0.572200
     44 HN6        -7.6030    0.4670   -1.8390 hn        1 M24      0.427300
     45 HN6A       -5.9730    0.8000   -1.5130 hn        1 M24      0.427300
     46 H1'        -2.9850   -4.3310   -4.3590 h2        1 M24      0.112700
     47 H2'        -1.0080   -2.1640   -4.6180 h1        1 M24      0.106700
     48 HO2'       -0.5750   -4.7900   -5.4930 ho        1 M24      0.419000
     49 H27        -0.9170   -2.3500    2.9650 ha        1 M24      0.169000
     50 H28        -2.0400   -2.0160    5.1870 ha        1 M24      0.133000
     51 H29        -1.9970    0.2090    6.2870 ha        1 M24      0.142000
     52 H3'         0.5700   -2.7000   -2.9670 h1        1 M24      0.125700
     53 HO3'        1.8250   -4.4700   -3.4970 ho        1 M24      0.425000
     54 H31         0.2820    1.7960    2.9310 ha        1 M24      0.175000
     55 H38        -1.3670    3.1240    9.4050 ha        1 M24      0.163000
     56 H39        -1.5650    4.5340   11.4460 ha        1 M24      0.141000
     57 H4'        -0.1680   -5.4900   -2.2340 h1        1 M24      0.070700
     58 H40        -1.3580    7.0160   11.2840 ha        1 M24      0.138000
     59 H41        -0.9530    8.0980    9.0660 ha        1 M24      0.153000
     60 H5'        -0.7890   -4.5290   -0.1150 h1        1 M24      0.038700
     61 H5'A       -1.1320   -2.8790   -0.8440 h1        1 M24      0.038700
     62 H2         -7.5220   -3.6060   -4.0320 h5        1 M24      0.037100
     63 H8         -1.6330   -1.2320   -2.2990 h5        1 M24      0.155800
@<TRIPOS>BOND
     1    1   13 1
     2    1   22 1
     3    1   35 1
     4    1   43 1
     5    2    3 ar
     6    2    7 ar
     7    3    4 ar
     8    3   62 1
     9    4    5 ar
    10    5    6 ar
    11    5   11 1
    12    6    7 ar
    13    6    9 1
    14    7    8 1
    15    8   44 1
    16    8   45 1
    17    9   10 2
    18   10   11 1
    19   10   63 1
    20   11   12 1
    21   12   14 1
    22   12   37 1
    23   12   46 1
    24   14   15 1
    25   14   23 1
    26   14   47 1
    27   15   48 1
    28   16   17 2
    29   16   18 1
    30   16   22 1
    31   18   19 ar
    32   18   26 ar
    33   19   20 ar
    34   19   49 1
    35   20   21 ar
    36   20   50 1
    37   21   25 ar
    38   21   51 1
    39   23   24 1
    40   23   36 1
    41   23   52 1
    42   24   53 1
    43   25   26 ar
    44   25   27 1
    45   26   54 1
    46   27   28 2
    47   27   31 1
    48   28   29 1
    49   29   30 1
    50   30   31 2
    51   30   32 1
    52   32   33 ar
    53   32   40 ar
    54   33   34 ar
    55   33   55 1
    56   34   38 ar
    57   34   56 1
    58   36   37 1
    59   36   42 1
    60   36   57 1
    61   38   39 ar
    62   38   58 1
    63   39   40 ar
    64   39   59 1
    65   40   41 1
    66   42   43 1
    67   42   60 1
    68   42   61 1
@<TRIPOS>SUBSTRUCTURE
     1 M24         1 TEMP              0 ****  ****    0 ROOT
