@<TRIPOS>MOLECULE
M25
   31    31     1     0     0
SMALL
bcc


@<TRIPOS>ATOM
      1 C1           0.0000     0.0000     0.0000 ca         1 M25      -0.248500
      2 C2           1.3950     0.0000     0.0000 ca         1 M25       0.020500
      3 C3           2.0930     0.0000     1.2080 ca         1 M25      -0.109500
      4 C4           1.3960     0.0000     2.4150 ca         1 M25       0.032700
      5 C5           0.0010     0.0000     2.4160 ca         1 M25      -0.109500
      6 C6          -0.6960     0.0000     1.2080 ca         1 M25       0.020500
      7 S           -0.8730     0.0000    -1.5120 sy         1 M25       0.846200
      8 O1          -2.1930     0.5680    -1.2790 o          1 M25      -0.454800
      9 O2          -0.0130     0.5660    -2.5420 o          1 M25      -0.454800
     10 N1          -1.0360    -1.6770    -1.7940 nz         1 M25      -0.112500
     11 C7           2.1410    -0.0000     3.7080 c3         1 M25      -0.027100
     12 C8           2.4480    -1.4060     4.2380 c3         1 M25       0.064000
     13 N2           3.2670    -2.1660     3.3320 ns         1 M25      -0.236900
     14 C9           4.6510    -2.1650     3.3720 c          1 M25       0.587100
     15 C10          5.2960    -3.0270     2.3390 c3         1 M25      -0.085100
     16 O3           5.3520    -1.5380     4.1590 o          1 M25      -0.593100
     17 H2           1.9370    -0.0000    -0.9380 ha         1 M25       0.126500
     18 H3           3.1760     0.0000     1.2080 ha         1 M25       0.138000
     19 H5          -0.5410     0.0010     3.3540 ha         1 M25       0.138000
     20 H6          -1.7800     0.0000     1.2090 ha         1 M25       0.126500
     21 HN11        -1.5440    -2.0940    -1.0390 hn         1 M25       0.306133
     22 HN12        -1.5300    -1.8250    -2.6510 hn         1 M25       0.306133
     23 H71          3.0770     0.5280     3.5670 hc         1 M25       0.048700
     24 H72          1.5520     0.5280     4.4470 hc         1 M25       0.048700
     25 H81          2.9630    -1.3180     5.1870 h1         1 M25       0.035200
     26 H82          1.5140    -1.9330     4.3940 h1         1 M25       0.035200
     27 HN2          2.8120    -2.7260     2.6380 hn         1 M25       0.165500
     28 H101         6.3730    -2.9580     2.4320 hc         1 M25       0.027367
     29 H102         4.9970    -2.6940     1.3530 hc         1 M25       0.027367
     30 H103         4.9870    -4.0560     2.4820 hc         1 M25       0.027367
     31 H13         -0.1280    -2.0960    -1.8510 hn         1 M25       0.306133
@<TRIPOS>BOND
     1     1     2 ar  
     2     1     6 ar  
     3     1     7 1   
     4     2     3 ar  
     5     2    17 1   
     6     3     4 ar  
     7     3    18 1   
     8     4     5 ar  
     9     4    11 1   
    10     5     6 ar  
    11     5    19 1   
    12     6    20 1   
    13     7     8 2   
    14     7     9 2   
    15     7    10 1   
    16    10    21 1   
    17    10    22 1   
    18    10    31 1   
    19    11    12 1   
    20    11    23 1   
    21    11    24 1   
    22    12    13 1   
    23    12    25 1   
    24    12    26 1   
    25    13    14 1   
    26    13    27 1   
    27    14    15 1   
    28    14    16 2   
    29    15    28 1   
    30    15    29 1   
    31    15    30 1   
@<TRIPOS>SUBSTRUCTURE
     1 M25         1 TEMP              0 ****  ****    0 ROOT
