@<TRIPOS>MOLECULE
molecule
   26    26     1     0     0
SMALL
bcc


@<TRIPOS>ATOM
      1 C1           0.0000     0.0000     0.0000 ca         1 M28      -0.357500
      2 C2           1.3950     0.0000     0.0000 ca         1 M28      -0.036500
      3 C3           2.0930     0.0000     1.2080 ca         1 M28      -0.138000
      4 C4           1.3960     0.0000     2.4150 ca         1 M28       0.065700
      5 C5           0.0010     0.0000     2.4160 ca         1 M28      -0.138000
      6 C6          -0.6960     0.0000     1.2080 ca         1 M28      -0.036500
      7 S           -0.8730     0.0000    -1.5120 sy         1 M28       1.107200
      8 O1          -2.1930     0.5680    -1.2790 o          1 M28      -0.506300
      9 O2          -0.0130     0.5660    -2.5420 o          1 M28      -0.506300
     10 N3          -1.0360    -1.6770    -1.7940 nz         1 M28      -0.777500
     11 C7           2.1410    -0.0000     3.7080 c3         1 M28      -0.069100
     12 C8           2.4500    -1.4040     4.2420 c3         1 M28      -0.161400
     13 C9           3.1730    -1.3490     5.5660 c          1 M28       0.891600
     14 O4           3.4950    -2.5770     6.0410 o          1 M28      -0.814300
     15 O5           3.4620    -0.3090     6.1420 o          1 M28      -0.814300
     16 H2           1.9370    -0.0000    -0.9380 ha         1 M28       0.144000
     17 H3           3.1760     0.0000     1.2080 ha         1 M28       0.171000
     18 H5          -0.5410     0.0010     3.3540 ha         1 M28       0.171000
     19 H6          -1.7800     0.0000     1.2090 ha         1 M28       0.144000
     20 HN31        -0.1280    -2.0950    -1.8570 hn         1 M28       0.477467
     21 HN32        -1.5430    -2.0940    -1.0390 hn         1 M28       0.477467
     22 H71          1.5520     0.5290     4.4470 hc         1 M28       0.078200
     23 H72          3.0760     0.5290     3.5670 hc         1 M28       0.078200
     24 H81          1.5200    -1.9450     4.3690 hc         1 M28       0.036200
     25 H82          3.0680    -1.9270     3.5230 hc         1 M28       0.036200
     26 H33         -1.5420    -1.8250    -2.6440 hn         1 M28       0.477467
@<TRIPOS>BOND
     1     1     7 1
     2     1     2 ar
     3     1     6 ar
     4     2     3 ar
     5     2    16 1
     6     3     4 ar
     7     3    17 1
     8     4     5 ar
     9     4    11 1
    10     5     6 ar
    11     5    18 1
    12     6    19 1
    13     7     8 2
    14     7     9 2
    15     7    10 1
    16    10    20 1
    17    10    21 1
    18    11    12 1
    19    11    22 1
    20    11    23 1
    21    12    13 1
    22    12    24 1
    23    12    25 1
    24    13    14 1
    25    13    15 1
    26    26    10 1
@<TRIPOS>SUBSTRUCTURE
     1 M28         1 TEMP              0 ****  ****    0 ROOT
