@<TRIPOS>MOLECULE
M29
   33    33     1     0     0
SMALL
bcc


@<TRIPOS>ATOM
      1 C1           0.0000     0.0000     0.0000 ca         1 M29      -0.245500
      2 C2           1.3950     0.0000     0.0000 ca         1 M29       0.020000
      3 C3           2.0920     0.0000     1.2080 ca         1 M29      -0.103000
      4 C4           1.3910     0.0020     2.4090 ca         1 M29       0.026700
      5 C5          -0.0010     0.0010     2.4160 ca         1 M29      -0.103000
      6 C6          -0.6980     0.0010     1.2070 ca         1 M29       0.020000
      7 S           -0.8720    -0.0020    -1.5120 sy         1 M29       0.844200
      8 O1          -2.1930     0.5670    -1.2820 o          1 M29      -0.455800
      9 O2          -0.0120     0.5640    -2.5440 o          1 M29      -0.455800
     10 N           -1.0350    -1.6790    -1.7940 nz         1 M29      -0.110500
     11 C7           2.1400     0.0020     3.7070 c3         1 M29       0.007900
     12 C8           2.4290    -1.4140     4.2110 c3         1 M29      -0.082400
     13 C9           3.1780    -1.4070     5.5240 c          1 M29       0.701100
     14 O3           3.3770    -2.6970     5.9270 os         1 M29      -0.414900
     15 O4           3.5450    -0.4040     6.1230 o          1 M29      -0.545000
     16 C10          4.0810    -2.8550     7.1620 c3         1 M29       0.215400
     17 C11          4.2190    -4.3320     7.4650 c3         1 M29      -0.005100
     18 H2           1.9370    -0.0010    -0.9380 ha         1 M29       0.126500
     19 H3           3.1750     0.0000     1.2110 ha         1 M29       0.138000
     20 H5          -0.5410     0.0030     3.3550 ha         1 M29       0.138000
     21 H6          -1.7810     0.0010     1.2060 ha         1 M29       0.126500
     22 HN1         -1.5440    -2.0950    -1.0390 hn         1 M29       0.306133
     23 HN2         -1.5300    -1.8260    -2.6510 hn         1 M29       0.306133
     24 H71          1.5520     0.5260     4.4520 hc         1 M29       0.048700
     25 H72          3.0790     0.5240     3.5710 hc         1 M29       0.048700
     26 H81          3.0220    -1.9360     3.4700 hc         1 M29       0.036700
     27 H82          1.4900    -1.9380     4.3440 hc         1 M29       0.036700
     28 H101         5.0650    -2.4080     7.0790 h1         1 M29       0.012700
     29 H102         3.5290    -2.3720     7.9590 h1         1 M29       0.012700
     30 H111         4.7690    -4.8150     6.6660 hc         1 M29       0.014033
     31 H112         3.2350    -4.7780     7.5460 hc         1 M29       0.014033
     32 H113         4.7520    -4.4610     8.3990 hc         1 M29       0.014033
     33 HN3         -0.1280    -2.0960    -1.8560 hn         1 M29       0.306133
@<TRIPOS>BOND
     1     1     2 ar  
     2     1     6 ar  
     3     1     7 1   
     4     2     3 ar  
     5     2    18 1   
     6     3     4 ar  
     7     3    19 1   
     8     4     5 ar  
     9     4    11 1   
    10     5     6 ar  
    11     5    20 1   
    12     6    21 1   
    13     7     8 2   
    14     7     9 2   
    15     7    10 1   
    16    10    22 1   
    17    10    23 1   
    18    10    33 1   
    19    11    12 1   
    20    11    24 1   
    21    11    25 1   
    22    12    13 1   
    23    12    26 1   
    24    12    27 1   
    25    13    14 1   
    26    13    15 2   
    27    14    16 1   
    28    16    17 1   
    29    16    28 1   
    30    16    29 1   
    31    17    30 1   
    32    17    31 1   
    33    17    32 1   
@<TRIPOS>SUBSTRUCTURE
     1 M29         1 TEMP              0 ****  ****    0 ROOT
