@<TRIPOS>MOLECULE
molecule
   56    59     1     0     0
SMALL
bcc


@<TRIPOS>ATOM
      1 O1           0.0000     0.0000     0.0000 o          1 M2A      -0.856833
      2 P1           1.4800     0.0000     0.0000 p5         1 M2A       1.315900
      3 O2           2.0160     0.0000     1.5180 o          1 M2A      -0.856833
      4 O3           2.0170    -1.3140    -0.7600 o          1 M2A      -0.856833
      5 O4           2.0160     1.3150    -0.7590 os         1 M2A      -0.714800
      6 P2           1.6160     2.8740    -0.7130 p5         1 M2A       1.428800
      7 O5           0.2300     3.0960    -1.5010 o          1 M2A      -0.855500
      8 O6           1.4580     3.3010     0.6960 o          1 M2A      -0.855500
      9 O7           2.7760     3.7460    -1.4110 os         1 M2A      -0.596200
     10 C1           2.7660     5.1750    -1.4370 c3         1 M2A       0.241400
     11 C2           4.0070     5.6800    -2.1760 c3         1 M2A       0.101100
     12 C3           3.9610     7.2210    -2.3300 c3         1 M2A       0.097100
     13 O8           3.4010     7.8340    -1.1660 oh         1 M2A      -0.563800
     14 O9           5.1950     5.4560    -1.3860 os         1 M2A      -0.333600
     15 C4           6.1960     6.3680    -1.8660 c3         1 M2A       0.238800
     16 C5           5.4600     7.5780    -2.4730 c3         1 M2A       0.096100
     17 O10          5.7690     8.7870    -1.7300 os         1 M2A      -0.383900
     18 C6           5.6780     9.9550    -2.3950 c          1 M2A       0.660700
     19 O11          5.3500     9.9630    -3.5650 o          1 M2A      -0.630000
     20 C7           5.9770    11.2200    -1.7050 ca         1 M2A      -0.238600
     21 C8           6.2360    11.2290    -0.3310 ca         1 M2A      -0.056000
     22 C9           6.5140    12.4160     0.3090 ca         1 M2A      -0.194000
     23 C10          6.5390    13.6070    -0.4020 ca         1 M2A      -0.132000
     24 C11          6.2850    13.6150    -1.7590 ca         1 M2A      -0.245000
     25 C12          6.0080    12.4270    -2.4230 ca         1 M2A       0.248600
     26 N1           5.7580    12.4330    -3.7890 nu         1 M2A      -0.828600
     27 C13          5.9090    13.6710    -4.5560 c3         1 M2A       0.228100
     28 N2           7.0140     5.7150    -2.8920 na         1 M2A      -0.258000
     29 C14          8.2920     6.0600    -3.2520 ca         1 M2A       0.461800
     30 N3           9.1590     6.9890    -2.8610 nb         1 M2A      -0.772000
     31 C15         10.3500     7.0700    -3.4150 ca         1 M2A       0.709900
     32 N4          10.7450     6.2490    -4.3710 nb         1 M2A      -0.859000
     33 C16          9.9470     5.2880    -4.8260 ca         1 M2A       0.772200
     34 N5          10.3700     4.4330    -5.8290 nv         1 M2A      -0.999500
     35 C17          8.6640     5.1620    -4.2660 ca         1 M2A      -0.200200
     36 N6           7.6130     4.3320    -4.4690 nc         1 M2A      -0.617100
     37 C18          6.6460     4.6510    -3.6600 cd         1 M2A       0.464700
     38 H4           2.7690     5.5550    -0.4230 h1         1 M2A       0.043700
     39 H5           1.8750     5.5200    -1.9490 h1         1 M2A       0.043700
     40 H6           4.1010     5.2050    -3.1450 h1         1 M2A       0.050700
     41 H7           3.4140     7.5010    -3.2220 h1         1 M2A       0.050700
     42 H8           2.6220     8.3080    -1.4050 ho         1 M2A       0.399000
     43 H9           6.8200     6.6940    -1.0420 h2         1 M2A       0.119700
     44 H10          5.7220     7.6920    -3.5180 h1         1 M2A       0.080700
     45 H11          6.2190    10.3030     0.2300 ha         1 M2A       0.147000
     46 H12          6.7150    12.4200     1.3740 ha         1 M2A       0.110000
     47 H13          6.7570    14.5360     0.1100 ha         1 M2A       0.099000
     48 H14          6.3080    14.5490    -2.3080 ha         1 M2A       0.109000
     49 H15          5.4560    11.5950    -4.2460 hn         1 M2A       0.484800
     50 H16          5.1940    14.4050    -4.2020 h1         1 M2A       0.018700
     51 H17          6.9140    14.0560    -4.4280 h1         1 M2A       0.018700
     52 H18          5.7300    13.4700    -5.6050 h1         1 M2A       0.018700
     53 H19         11.0320     7.8390    -3.0740 h5         1 M2A       0.044100
     54 H20          9.7590     3.7140    -6.1630 hn         1 M2A       0.440300
     55 H21         11.2850     4.5330    -6.2200 hn         1 M2A       0.440300
     56 H22          5.6890     4.1450    -3.6050 h5         1 M2A       0.120800
@<TRIPOS>BOND
     1    13    12 1
     2    10    11 1
     3    10     9 1
     4     1     2 1
     5    14    11 1
     6    14    15 1
     7    11    12 1
     8    12    16 1
     9    15    16 1
    10    15    28 1
    11     5     2 1
    12     5     6 1
    13    30    31 ar
    14    30    29 ar
    15     9     6 1
    16     8     6 1
    17     2     3 1
    18     2     4 1
    19    31    32 ar
    20    16    17 1
    21    17    18 1
    22     6     7 1
    23    28    29 1
    24    28    37 1
    25    29    35 ar
    26    21    22 ar
    27    21    20 ar
    28    22    23 ar
    29    32    33 ar
    30    18    20 1
    31    18    19 2
    32    20    25 ar
    33    23    24 ar
    34    37    36 2
    35    35    33 ar
    36    35    36 1
    37    33    34 1
    38    25    24 ar
    39    25    26 1
    40    26    27 1
    41    10    38 1
    42    10    39 1
    43    11    40 1
    44    12    41 1
    45    13    42 1
    46    15    43 1
    47    16    44 1
    48    21    45 1
    49    22    46 1
    50    23    47 1
    51    24    48 1
    52    26    49 1
    53    27    50 1
    54    27    51 1
    55    27    52 1
    56    31    53 1
    57    34    54 1
    58    34    55 1
    59    37    56 1
@<TRIPOS>SUBSTRUCTURE
     1 M2A         1 TEMP              0 ****  ****    0 ROOT
