@<TRIPOS>MOLECULE
M2C
   32    32     1     0     0
SMALL
bcc


@<TRIPOS>ATOM
      1 OA           0.0000     0.0000     0.0000 oh         1 M2C      -0.599300
      2 C7           1.4290     0.0000     0.0000 c3         1 M2C       0.351300
      3 O8           1.9040     1.1680    -0.6730 oh         1 M2C      -0.599300
      4 C9           1.9390     0.0000     1.4410 c3         1 M2C      -0.066500
      5 C11          1.4310     1.2480     2.1630 c3         1 M2C      -0.024400
      6 C12          1.9400     1.2480     3.6050 c3         1 M2C       0.036700
      7 S13          1.3360     2.7280     4.4610 ss         1 M2C      -0.342200
      8 C14          2.0740     2.4700     6.0980 c3         1 M2C       0.123000
      9 N10          3.4070    -0.0010     1.4400 nz         1 M2C       0.061400
     10 C1           1.9310    -1.2290    -0.7120 ca         1 M2C       0.271600
     11 C2           1.5910    -1.4410    -2.0350 ca         1 M2C      -0.155300
     12 C3           2.0590    -2.5740    -2.6800 ca         1 M2C      -0.031000
     13 C4           2.8530    -3.4580    -1.9680 ca         1 M2C      -0.171300
     14 C5           3.1500    -3.1820    -0.6470 ca         1 M2C       0.425200
     15 N6           2.6930    -2.0900    -0.0660 nb         1 M2C      -0.655000
     16 HOA         -0.3140     0.5320    -0.7120 ho         1 M2C       0.431500
     17 HO8          1.2550     1.4600    -1.2920 ho         1 M2C       0.431500
     18 H9           1.5780    -0.8850     1.9510 hx         1 M2C       0.112700
     19 H111         0.3470     1.2490     2.1630 hc         1 M2C       0.072200
     20 H112         1.7920     2.1330     1.6530 hc         1 M2C       0.072200
     21 H121         3.0230     1.2470     3.6050 h1         1 M2C       0.027200
     22 H122         1.5780     0.3630     4.1150 h1         1 M2C       0.027200
     23 H141         3.1530     2.4360     6.0060 h1         1 M2C       0.040367
     24 H142         1.7920     3.2850     6.7540 h1         1 M2C       0.040367
     25 H143         1.7170     1.5340     6.5110 h1         1 M2C       0.040367
     26 H101         3.7410    -0.6790     2.0970 hn         1 M2C       0.233467
     27 H102         3.7410     0.9060     1.6980 hn         1 M2C       0.233467
     28 H2           0.9680    -0.7280    -2.5620 ha         1 M2C       0.117000
     29 H3           1.8090    -2.7650    -3.7170 ha         1 M2C       0.131000
     30 H4           3.2340    -4.3560    -2.4400 ha         1 M2C       0.135000
     31 H5           3.7720    -3.8670    -0.0840 h4         1 M2C      -0.003900
     32 H103         3.7400    -0.2550     0.5310 hn         1 M2C       0.233467
@<TRIPOS>BOND
     1     1     2 1   
     2     1    16 1   
     3     2     3 1   
     4     2     4 1   
     5     2    10 1   
     6     3    17 1   
     7     4     5 1   
     8     4     9 1   
     9     4    18 1   
    10     5     6 1   
    11     5    19 1   
    12     5    20 1   
    13     6     7 1   
    14     6    21 1   
    15     6    22 1   
    16     7     8 1   
    17     8    23 1   
    18     8    24 1   
    19     8    25 1   
    20     9    26 1   
    21     9    27 1   
    22     9    32 1   
    23    10    11 ar  
    24    10    15 ar  
    25    11    12 ar  
    26    11    28 1   
    27    12    13 ar  
    28    12    29 1   
    29    13    14 ar  
    30    13    30 1   
    31    14    15 ar  
    32    14    31 1   
@<TRIPOS>SUBSTRUCTURE
     1 M2C         1 TEMP              0 ****  ****    0 ROOT
