@<TRIPOS>MOLECULE
molecule
   37    38     1     0     0
SMALL
bcc


@<TRIPOS>ATOM
      1 O1B          0.0000     0.0000     0.0000 o          1 M2F      -0.186500
      2 N1B          1.2180     0.0000     0.0000 no         1 M2F       0.301200
      3 O2B          1.8270     0.0000     1.0560 o          1 M2F      -0.186500
      4 C6B          1.9590    -0.0070    -1.2810 ca         1 M2F      -0.197200
      5 C1A          1.2690    -0.0130    -2.4780 ca         1 M2F       0.015000
      6 C2B          1.9600    -0.0180    -3.6750 ca         1 M2F      -0.203200
      7 N1C          1.2190    -0.0240    -4.9560 no         1 M2F       0.299200
      8 O3C          0.0010    -0.0240    -4.9550 o          1 M2F      -0.196500
      9 O2C          1.8270    -0.0290    -6.0120 o          1 M2F      -0.196500
     10 C3B          3.3430    -0.0170    -3.6780 ca         1 M2F       0.001000
     11 C4B          4.0370    -0.0120    -2.4840 ca         1 M2F      -0.214000
     12 C5B          3.3460    -0.0000    -1.2810 ca         1 M2F       0.233100
     13 O1           4.0270     0.0110    -0.1050 os         1 M2F      -0.253900
     14 C1           5.4540     0.0160    -0.1810 c3         1 M2F       0.312900
     15 O5           5.9050    -1.2070    -0.7660 os         1 M2F      -0.420600
     16 C2           6.0390     0.1540     1.2260 c3         1 M2F       0.146600
     17 F2           5.5770    -0.8940     2.0300 f          1 M2F      -0.202300
     18 C3           7.5680     0.0990     1.1430 c3         1 M2F       0.104100
     19 O3           8.1220     0.1520     2.4580 oh         1 M2F      -0.577800
     20 C4           7.9840    -1.2110     0.4640 c3         1 M2F       0.110100
     21 O4           9.4050    -1.2400     0.3150 oh         1 M2F      -0.598800
     22 C5           7.3230    -1.2960    -0.9130 c3         1 M2F       0.152100
     23 C6           7.6850    -2.6280    -1.5730 c3         1 M2F       0.152400
     24 O6           7.1640    -2.6590    -2.9030 oh         1 M2F      -0.607800
     25 H1A          0.1860    -0.0130    -2.4780 ha         1 M2F       0.202000
     26 H3B          3.8830    -0.0240    -4.6180 ha         1 M2F       0.179000
     27 H4B          5.1200    -0.0090    -2.4860 ha         1 M2F       0.179000
     28 H1           5.7850     0.8490    -0.7900 h2         1 M2F       0.046700
     29 H2           5.7360     1.1030     1.6510 h1         1 M2F       0.078700
     30 H5           7.6720    -0.4760    -1.5300 h1         1 M2F       0.058700
     31 H3           7.9280     0.9370     0.5590 h1         1 M2F       0.054700
     32 HA           8.4730     1.0120     2.6170 ho         1 M2F       0.413000
     33 H4           7.6610    -2.0490     1.0710 h1         1 M2F       0.078700
     34 HB           9.7750    -1.8400     0.9420 ho         1 M2F       0.421000
     35 H61C         8.7630    -2.7330    -1.6050 h1         1 M2F       0.045200
     36 H62C         7.2600    -3.4420    -0.9990 h1         1 M2F       0.045200
     37 H6           7.4840    -3.4260    -3.3480 ho         1 M2F       0.412000
@<TRIPOS>BOND
     1     1     2 1
     2     2     3 1
     3     2     4 1
     4     4     5 ar
     5     4    12 ar
     6     5     6 ar
     7     6     7 1
     8     6    10 ar
     9     7     8 1
    10     7     9 1
    11    10    11 ar
    12    11    12 ar
    13    12    13 1
    14    13    14 1
    15    14    15 1
    16    14    16 1
    17    15    22 1
    18    16    17 1
    19    16    18 1
    20    18    19 1
    21    18    20 1
    22    20    21 1
    23    20    22 1
    24    22    23 1
    25    23    24 1
    26     5    25 1
    27    10    26 1
    28    11    27 1
    29    14    28 1
    30    16    29 1
    31    22    30 1
    32    18    31 1
    33    19    32 1
    34    20    33 1
    35    21    34 1
    36    23    35 1
    37    23    36 1
    38    24    37 1
@<TRIPOS>SUBSTRUCTURE
     1 M2F         1 TEMP              0 ****  ****    0 ROOT
