@<TRIPOS>MOLECULE
molecule
   23    22     1     0     0
SMALL
bcc


@<TRIPOS>ATOM
      1 C1           0.0000     0.0000     0.0000 c3         1 M2M       0.114700
      2 O1           1.4290     0.0000     0.0000 os         1 M2M      -0.396600
      3 C2           1.8420     0.0000     1.3670 c3         1 M2M       0.126400
      4 C3           3.3700    -0.0000     1.4380 c3         1 M2M       0.125400
      5 O2           3.8780     1.1660     0.7870 os         1 M2M      -0.382600
      6 C4           5.3020     1.1090     0.8870 c3         1 M2M       0.125400
      7 C5           5.9110     2.3360     0.2060 c3         1 M2M       0.126400
      8 O3           5.4370     3.5200     0.8470 os         1 M2M      -0.396600
      9 C6           6.0380     4.6260     0.1700 c3         1 M2M       0.114700
     10 H11         -0.3610     0.8840     0.5120 h1         1 M2M       0.030033
     11 H12         -0.3610    -0.8850     0.5100 h1         1 M2M       0.030033
     12 H13         -0.3610     0.0010    -1.0210 h1         1 M2M       0.030033
     13 H21          1.4580    -0.8840     1.8600 h1         1 M2M       0.033700
     14 H22          1.4580     0.8850     1.8600 h1         1 M2M       0.033700
     15 H31          3.6840    -0.0010     2.4750 h1         1 M2M       0.031700
     16 H32          3.7550    -0.8850     0.9440 h1         1 M2M       0.031700
     17 H41          5.5900     1.0940     1.9310 h1         1 M2M       0.031700
     18 H42          5.6620     0.2100     0.4010 h1         1 M2M       0.031700
     19 H51          6.9910     2.2920     0.2810 h1         1 M2M       0.033700
     20 H52          5.6220     2.3500    -0.8380 h1         1 M2M       0.033700
     21 H61          7.1160     4.5530     0.2470 h1         1 M2M       0.030033
     22 H62          5.7050     5.5510     0.6240 h1         1 M2M       0.030033
     23 H63          5.7490     4.6110    -0.8740 h1         1 M2M       0.030033
@<TRIPOS>BOND
     1     1     2 1
     2     1    10 1
     3     1    11 1
     4     1    12 1
     5     2     3 1
     6     3     4 1
     7     3    13 1
     8     3    14 1
     9     4     5 1
    10     4    15 1
    11     4    16 1
    12     5     6 1
    13     6     7 1
    14     6    17 1
    15     6    18 1
    16     7     8 1
    17     7    19 1
    18     7    20 1
    19     8     9 1
    20     9    21 1
    21     9    22 1
    22     9    23 1
@<TRIPOS>SUBSTRUCTURE
     1 M2M         1 TEMP              0 ****  ****    0 ROOT
