@<TRIPOS>MOLECULE
M2M
   23    22     1     0     0
SMALL
bcc


@<TRIPOS>ATOM
      1 C1          0.0260   -0.8130   -0.1260 c3        1 M2M      0.117700
      2 O1          1.3790   -0.8350    0.2910 os        1 M2M     -0.425100
      3 C2          1.7040    0.2540    1.1530 c3        1 M2M      0.123400
      4 C3          3.2100    0.1890    1.3860 c3        1 M2M      0.127400
      5 O2          3.7740    1.3050    0.7010 os        1 M2M     -0.429600
      6 C4          5.2000    1.2750    0.7010 c3        1 M2M      0.127400
      7 C5          5.6600    2.6000    0.1020 c3        1 M2M      0.123400
      8 O3          6.2440    3.3460    1.1690 os        1 M2M     -0.425100
      9 C6          6.5890    4.6650    0.7860 c3        1 M2M      0.117700
     10 H11        -0.6600   -0.8810    0.7540 h1        1 M2M      0.032700
     11 H12        -0.0810   -1.7160   -0.7780 h1        1 M2M      0.032700
     12 H13        -0.1940    0.1170   -0.7070 h1        1 M2M      0.032700
     13 H21         1.1520    0.1340    2.1220 h1        1 M2M      0.042700
     14 H22         1.4170    1.2280    0.6740 h1        1 M2M      0.042700
     15 H31         3.4440    0.2720    2.4800 h1        1 M2M      0.043700
     16 H32         3.6340   -0.7690    0.9820 h1        1 M2M      0.043700
     17 H41         5.5860    1.1550    1.7480 h1        1 M2M      0.043700
     18 H42         5.5490    0.4160    0.0700 h1        1 M2M      0.043700
     19 H51         6.4350    2.4250   -0.6900 h1        1 M2M      0.042700
     20 H52         4.7940    3.1630   -0.3360 h1        1 M2M      0.042700
     21 H61         5.6810    5.2350    0.4700 h1        1 M2M      0.032700
     22 H62         7.0350    5.1160    1.7070 h1        1 M2M      0.032700
     23 H63         7.3370    4.6510   -0.0460 h1        1 M2M      0.032700
@<TRIPOS>BOND
     1    1    2 1   
     2    1   10 1   
     3    1   11 1   
     4    1   12 1   
     5    2    3 1   
     6    3    4 1   
     7    3   13 1   
     8    3   14 1   
     9    4    5 1   
    10    4   15 1   
    11    4   16 1   
    12    5    6 1   
    13    6    7 1   
    14    6   17 1   
    15    6   18 1   
    16    7    8 1   
    17    7   19 1   
    18    7   20 1   
    19    8    9 1   
    20    9   21 1   
    21    9   22 1   
    22    9   23 1   
@<TRIPOS>SUBSTRUCTURE
     1 M2M         1 TEMP              0 ****  ****    0 ROOT
