@<TRIPOS>MOLECULE
molecule
   38    41     1     0     0
SMALL
bcc


@<TRIPOS>ATOM
      1 CAK          0.0000     0.0000     0.0000 ca         1 M2N      -0.121500
      2 CAG          1.3800     0.0000     0.0000 ca         1 M2N      -0.130000
      3 CAD          2.0740     0.0000     1.1960 ca         1 M2N      -0.132000
      4 CAH          1.3900     0.0010     2.4000 ca         1 M2N      -0.130000
      5 CAL          0.0110     0.0020     2.4130 ca         1 M2N      -0.121500
      6 CAR         -0.6960     0.0010     1.2100 ca         1 M2N      -0.008800
      7 CAU         -2.1750     0.0020     1.2170 cc         1 M2N      -0.046400
      8 C5          -3.0530    -1.0820     1.6710 ca         1 M2N      -0.410400
      9 C6          -2.8440    -2.3640     2.2030 ca         1 M2N       0.803200
     10 NAB         -1.5640    -2.8480     2.3980 nv         1 M2N      -1.037500
     11 N1          -3.9050    -3.1010     2.5140 nb         1 M2N      -0.859000
     12 C2          -5.1350    -2.6390     2.3280 ca         1 M2N       0.988900
     13 NAA         -6.2080    -3.4460     2.6680 nv         1 M2N      -0.995500
     14 N3          -5.3750    -1.4380     1.8310 nb         1 M2N      -0.856000
     15 C4          -4.3720    -0.6290     1.4900 ca         1 M2N       0.550800
     16 NAO         -4.3150     0.6340     0.9650 na         1 M2N      -0.267100
     17 CAT         -3.0030     1.0240     0.8030 cd         1 M2N      -0.012300
     18 CAQ         -2.5570     2.3260     0.2690 ca         1 M2N      -0.036800
     19 CAI         -3.1350     2.8430    -0.8930 ca         1 M2N      -0.109500
     20 CAE         -2.7130     4.0600    -1.3870 ca         1 M2N      -0.129000
     21 CAC         -1.7190     4.7680    -0.7350 ca         1 M2N      -0.122000
     22 CAF         -1.1410     4.2610     0.4170 ca         1 M2N      -0.129000
     23 CAJ         -1.5580     3.0490     0.9240 ca         1 M2N      -0.109500
     24 HAK         -0.5420    -0.0000    -0.9380 ha         1 M2N       0.136000
     25 HAG          1.9200    -0.0010    -0.9390 ha         1 M2N       0.129000
     26 HAD          3.1570    -0.0000     1.1910 ha         1 M2N       0.128000
     27 HAH          1.9400     0.0010     3.3340 ha         1 M2N       0.129000
     28 HAL         -0.5220     0.0030     3.3550 ha         1 M2N       0.136000
     29 HAB1        -1.3130    -3.7510     2.0490 hn         1 M2N       0.443300
     30 HAB2        -0.9070    -2.3200     2.9390 hn         1 M2N       0.443300
     31 HAA1        -7.1330    -3.0650     2.6910 hn         1 M2N       0.448800
     32 HAA2        -6.0590    -4.4140     2.8770 hn         1 M2N       0.448800
     33 HAO         -5.1120     1.1960     0.7380 hn         1 M2N       0.307700
     34 HAI         -3.9130     2.2900    -1.4050 ha         1 M2N       0.138000
     35 HAJ         -1.1050     2.6530     1.8250 ha         1 M2N       0.138000
     36 HAE         -3.1610     4.4620    -2.2880 ha         1 M2N       0.133000
     37 HAC         -1.3900     5.7220    -1.1280 ha         1 M2N       0.130000
     38 HAF         -0.3650     4.8210     0.9240 ha         1 M2N       0.133000
@<TRIPOS>BOND
     1     1     2 ar
     2     1     6 ar
     3     2     3 ar
     4     3     4 ar
     5     4     5 ar
     6     5     6 ar
     7     6     7 1
     8     7     8 1
     9     7    17 2
    10     8     9 ar
    11     8    15 ar
    12     9    10 1
    13     9    11 ar
    14    11    12 ar
    15    12    13 1
    16    12    14 ar
    17    14    15 ar
    18    15    16 1
    19    16    17 1
    20    17    18 1
    21    18    19 ar
    22    18    23 ar
    23    19    20 ar
    24    20    21 ar
    25    21    22 ar
    26    22    23 ar
    27     1    24 1
    28     2    25 1
    29     3    26 1
    30     4    27 1
    31     5    28 1
    32    10    29 1
    33    10    30 1
    34    13    31 1
    35    13    32 1
    36    16    33 1
    37    19    34 1
    38    23    35 1
    39    20    36 1
    40    21    37 1
    41    22    38 1
@<TRIPOS>SUBSTRUCTURE
     1 M2N         1 TEMP              0 ****  ****    0 ROOT
