@<TRIPOS>MOLECULE
molecule
   32    31     1     0     0
SMALL
bcc


@<TRIPOS>ATOM
      1 C1           0.0000     0.0000     0.0000 c3         1 M2P       0.137400
      2 C5           4.0800    -2.4300    -1.5500 c3         1 M2P       0.119600
      3 C6           5.6100    -2.4300    -1.5500 c3         1 M2P       0.137400
      4 C4           3.5700    -1.2480    -0.7220 c3         1 M2P       0.142600
      5 C3           2.0400    -1.2480    -0.7220 c3         1 M2P       0.142600
      6 C2           1.5300     0.0000     0.0000 c3         1 M2P       0.119600
      7 O1          -0.4770     1.2210     0.5710 os         1 M2P      -0.554200
      8 O2           2.0070     0.0000     1.3470 oh         1 M2P      -0.624300
      9 O3           1.5630    -1.2480    -2.0690 oh         1 M2P      -0.594300
     10 O4           4.0450    -0.0270    -1.2920 oh         1 M2P      -0.594300
     11 O6           6.0860    -3.4610    -2.4170 os         1 M2P      -0.554200
     12 P6           7.6940    -3.4030    -2.3690 p5         1 M2P       1.182400
     13 O62          8.2010    -3.7790    -0.8880 o          1 M2P      -0.926667
     14 O63          8.3010    -4.4560    -3.4260 o          1 M2P      -0.926667
     15 O61          8.1500    -2.0390    -2.7160 o          1 M2P      -0.926667
     16 H11A        -0.3610    -0.0880    -1.0180 h1         1 M2P       0.045700
     17 H12         -0.3610    -0.8370     0.5850 h1         1 M2P       0.045700
     18 H5           3.7190    -2.3400    -2.5680 h1         1 M2P       0.047700
     19 H61          5.9710    -1.4700    -1.8990 h1         1 M2P       0.045700
     20 H62A         5.9710    -2.6080    -0.5450 h1         1 M2P       0.045700
     21 H4           3.9310    -1.3380     0.2950 h1         1 M2P       0.050700
     22 H3           1.6790    -2.1330    -0.2120 h1         1 M2P       0.050700
     23 H2           1.8910     0.8850    -0.5100 h1         1 M2P       0.047700
     24 HO2          2.0870     0.8890     1.6530 ho         1 M2P       0.393000
     25 HO3          0.9660    -1.9670    -2.1910 ho         1 M2P       0.388500
     26 HO4          4.7500     0.3120    -0.7650 ho         1 M2P       0.388500
     27 P1          -2.0850     1.1530     0.5390 p5         1 M2P       1.182400
     28 O5           3.6040    -3.6510    -0.9810 oh         1 M2P      -0.624300
     29 HO5          3.3150    -4.2270    -1.6690 ho         1 M2P       0.393000
     30 O12         -2.5400    -0.0760     1.2270 o          1 M2P      -0.926667
     31 O13         -2.6910     2.4420     1.2880 o          1 M2P      -0.926667
     32 O11         -2.5910     1.1320    -0.9890 o          1 M2P      -0.926667
@<TRIPOS>BOND
     1     1     6 1
     2     1     7 1
     3     1    16 1
     4     1    17 1
     5     2     3 1
     6     2     4 1
     7     2    28 1
     8     2    18 1
     9     3    11 1
    10     3    19 1
    11     3    20 1
    12     4     5 1
    13     4    10 1
    14     4    21 1
    15     5     6 1
    16     5     9 1
    17     5    22 1
    18     6     8 1
    19     6    23 1
    20    30    27 1
    21    27    31 1
    22    27    32 1
    23    27     7 1
    24     8    24 1
    25     9    25 1
    26    10    26 1
    27    28    29 1
    28    11    12 1
    29    12    13 1
    30    12    14 1
    31    12    15 1
@<TRIPOS>SUBSTRUCTURE
     1 M2P         1 TEMP              0 ****  ****    0 ROOT
