@<TRIPOS>MOLECULE
molecule
   40    42     1     0     0
SMALL
bcc


@<TRIPOS>ATOM
      1 CG           0.0000     0.0000     0.0000 c3         1 M2T      -0.040300
      2 SD           1.8100     0.0000     0.0000 s6         1 M2T      -0.582200
      3 CE           1.8100     0.0000     1.8100 c3         1 M2T      -0.040300
      4 C5'          3.6190    -0.0270    -0.0160 c3         1 M2T      -0.189600
      5 C4'          4.1080    -0.5160    -1.3710 c3         1 M2T       0.204100
      6 O4'          5.1460     0.1460    -1.7320 os         1 M2T      -0.377600
      7 C1'          6.0050    -0.8370    -2.4960 c3         1 M2T       0.173800
      8 N9           7.2820    -0.7830    -2.0660 na         1 M2T      -0.182000
      9 C4           8.3240    -0.3410    -2.7910 ca         1 M2T       0.460800
     10 N3           8.4120     0.1380    -4.0450 nb         1 M2T      -0.785000
     11 C2           9.6130     0.5220    -4.5420 ca         1 M2T       0.722900
     12 N1          10.7260     0.4250    -3.7780 nb         1 M2T      -0.821000
     13 C6          10.6440    -0.0460    -2.5440 ca         1 M2T       0.773200
     14 N6          12.0100    -0.3760    -2.1670 nv         1 M2T      -1.005500
     15 C5           9.4210    -0.4380    -2.0350 ca         1 M2T      -0.155200
     16 N7           9.0610    -0.9390    -0.8450 nc         1 M2T      -0.580100
     17 C8           7.7390    -1.1510    -0.8680 cd         1 M2T       0.400700
     18 C2'          5.2120    -2.1920    -2.4800 c3         1 M2T       0.104100
     19 O2'          4.2310    -2.6940    -3.5220 oh         1 M2T      -0.541800
     20 C3'          4.5900    -2.0790    -1.2650 c3         1 M2T       0.070100
     21 O3'          3.4220    -2.9820    -1.4150 oh         1 M2T      -0.572800
     22 HG          -0.3610     0.8450     0.5740 h1         1 M2T       0.063200
     23 HGA         -0.3610    -0.9190     0.4450 h1         1 M2T       0.063200
     24 HGB         -0.3610     0.0750    -1.0190 h1         1 M2T       0.063200
     25 HE           2.8270    -0.0910     2.1710 h1         1 M2T       0.063200
     26 HEA          1.3800     0.9260     2.1710 h1         1 M2T       0.063200
     27 HEB          1.2230    -0.8360     2.1710 h1         1 M2T       0.063200
     28 H5'          3.9970     0.9720     0.1650 h1         1 M2T       0.050700
     29 H5'A         3.9770    -0.6940     0.7590 h1         1 M2T       0.050700
     30 H4'          3.3260    -0.4170    -2.1140 h1         1 M2T       0.040700
     31 H1'          6.0130    -0.5040    -3.5270 h2         1 M2T       0.106700
     32 H2           9.6820     0.9070    -5.5520 h5         1 M2T       0.069100
     33 HN6         12.7720    -0.0970    -2.7530 hn         1 M2T       0.445300
     34 HN6A        12.1900    -0.8590    -1.3090 hn         1 M2T       0.445300
     35 H8           7.1420    -1.5360    -0.0500 h5         1 M2T       0.086800
     36 H2'          5.9580    -2.9710    -2.3740 h1         1 M2T       0.037700
     37 HO2'         4.6980    -3.1650    -4.1920 ho         1 M2T       0.396000
     38 H3'          5.2330    -2.2950    -0.4200 h1         1 M2T       0.067700
     39 HO3'         3.6200    -3.8180    -1.0270 ho         1 M2T       0.390000
     40 HSD          2.2520     1.0840    -0.6250 hs         1 M2T       0.402800
@<TRIPOS>BOND
     1     2     1 1
     2     1    22 1
     3     1    23 1
     4     1    24 1
     5     3     2 1
     6     2     4 1
     7     3    25 1
     8     3    26 1
     9     3    27 1
    10     5     4 1
    11     4    28 1
    12     4    29 1
    13     6     5 1
    14     5    20 1
    15     5    30 1
    16     7     6 1
    17     8     7 1
    18     7    18 1
    19     7    31 1
    20    17     8 1
    21     8     9 1
    22    15     9 ar
    23     9    10 ar
    24    10    11 ar
    25    12    11 ar
    26    11    32 1
    27    13    12 ar
    28    15    13 ar
    29    14    13 1
    30    14    33 1
    31    14    34 1
    32    16    15 1
    33    16    17 2
    34    17    35 1
    35    19    18 1
    36    18    20 1
    37    18    36 1
    38    19    37 1
    39    21    20 1
    40    20    38 1
    41    21    39 1
    42     2    40 1
@<TRIPOS>SUBSTRUCTURE
     1 M2T         1 TEMP              0 ****  ****    0 ROOT
