@<TRIPOS>MOLECULE
molecule
   49    48     1     0     0
SMALL
bcc


@<TRIPOS>ATOM
      1 C8           0.0000     0.0000     0.0000 c          1 M2W       0.659100
      2 O27          1.2130     0.0000     0.0000 o          1 M2W      -0.621100
      3 O22         -0.4860    -0.8560     6.9290 o          1 M2W      -0.778300
      4 C9          -0.7530     0.0000     1.3060 c3         1 M2W      -0.146400
      5 C20         -0.2750     0.1260     6.2580 c          1 M2W       0.868600
      6 C16          0.4730     0.0020     4.9560 c3         1 M2W       0.044500
      7 C13         -0.5210     0.0020     3.7940 c3         1 M2W      -0.239400
      8 C10          0.2430     0.0010     2.4690 c3         1 M2W      -0.046400
      9 N19          1.2360    -1.2530     4.9480 nz         1 M2W      -0.801600
     10 N7          -0.6740     0.0050    -1.1660 ns         1 M2W      -0.549900
     11 C3           0.0570     0.0100    -2.4350 c3         1 M2W       0.103700
     12 C1          -0.8080     0.6160    -3.5110 c          1 M2W       0.652100
     13 O6          -1.9250     1.0040    -3.2440 o          1 M2W      -0.612100
     14 C35          0.4200    -1.4250    -2.8210 c3         1 M2W      -0.129300
     15 S37          1.4620    -2.1530    -1.5260 sh         1 M2W      -0.371900
     16 N2          -0.3390     0.7250    -4.7710 ns         1 M2W      -0.529900
     17 C4          -1.1800     1.3130    -5.8160 c3         1 M2W      -0.006300
     18 C23         -1.0410     2.8130    -5.7870 c          1 M2W       0.891600
     19 O25         -1.7240     3.5680    -6.6630 o          1 M2W      -0.834300
     20 C5          -0.7390     0.7860    -7.1830 c3         1 M2W       0.124100
     21 O41          0.6270     1.1420    -7.4120 os         1 M2W      -0.378600
     22 C46         -0.8790    -0.7380    -7.2120 c3         1 M2W      -0.204100
     23 C42          0.9540     1.3320    -8.7890 c3         1 M2W       0.127700
     24 O26         -0.3130     3.3380    -4.9770 o          1 M2W      -0.834300
     25 H91C        -1.3750    -0.8850     1.3640 hc         1 M2W       0.071700
     26 H92C        -1.3760     0.8840     1.3640 hc         1 M2W       0.071700
     27 H16          1.1530     0.8380     4.8490 hx         1 M2W       0.080700
     28 H131         0.1330     0.8510     3.9510 hc         1 M2W       0.123200
     29 H132        -1.5060     0.4480     3.8700 hc         1 M2W       0.123200
     30 H101         0.8650    -0.8840     2.4120 hc         1 M2W       0.038700
     31 H102         0.8660     0.8850     2.4100 hc         1 M2W       0.038700
     32 H191         1.6760    -1.3820     5.8380 hn         1 M2W       0.438133
     33 H192         0.6180    -2.0190     4.7670 hn         1 M2W       0.438133
     34 H7          -1.6750     0.0140    -1.1650 hn         1 M2W       0.340500
     35 H3           0.9620     0.5960    -2.3280 h1         1 M2W       0.093700
     36 H351         1.2000    -0.6730    -2.8280 h1         1 M2W       0.112200
     37 H352         0.4240    -1.7910    -3.8410 h1         1 M2W       0.112200
     38 H37          1.9140    -3.3330    -1.9330 hs         1 M2W       0.167800
     39 H2           0.5930     0.4290    -4.9850 hn         1 M2W       0.310500
     40 H4          -2.2140     1.0430    -5.6420 h1         1 M2W       0.077700
     41 H5          -1.7000     0.9290    -7.6610 h1         1 M2W       0.089700
     42 H461        -1.5170    -0.3550    -7.9990 hc         1 M2W       0.051367
     43 H462        -1.4090    -1.1590    -6.3660 hc         1 M2W       0.051367
     44 H463        -0.0000    -1.2660    -7.5600 hc         1 M2W       0.051367
     45 H421         1.8190     1.9790    -8.8690 h1         1 M2W       0.022700
     46 H422         0.1140     1.7880    -9.3000 h1         1 M2W       0.022700
     47 H423         1.1770     0.3740    -9.2430 h1         1 M2W       0.022700
     48 H193         1.9360    -1.2140     4.2330 hn         1 M2W       0.438133
     49 O21         -0.7100     1.3280     6.6700 o          1 M2W      -0.778300
@<TRIPOS>BOND
     1     1     2 2
     2     1     4 1
     3     1    10 1
     4     3     5 1
     5     4     8 1
     6     5     6 1
     7     5    49 1
     8     6     7 1
     9     6     9 1
    10     7     8 1
    11    10    11 1
    12    11    12 1
    13    11    14 1
    14    12    13 2
    15    12    16 1
    16    14    15 1
    17    16    17 1
    18    17    18 1
    19    17    20 1
    20    18    19 1
    21    18    24 1
    22    20    21 1
    23    20    22 1
    24    21    23 1
    25    15    38 1
    26     4    25 1
    27     4    26 1
    28    10    34 1
    29     8    30 1
    30     8    31 1
    31     6    27 1
    32     7    28 1
    33     7    29 1
    34     9    32 1
    35     9    33 1
    36    11    35 1
    37    14    36 1
    38    14    37 1
    39    16    39 1
    40    17    40 1
    41    20    41 1
    42    22    42 1
    43    22    43 1
    44    22    44 1
    45    23    45 1
    46    23    46 1
    47    23    47 1
    48    48     9 1
@<TRIPOS>SUBSTRUCTURE
     1 M2W         1 TEMP              0 ****  ****    0 ROOT
