@<TRIPOS>MOLECULE
M33
   42    44     1     0     0
SMALL
bcc


@<TRIPOS>ATOM
      1 PB           0.0000     0.0000     0.0000 p5         1 M33       0.689600
      2 O1B          1.4810     0.0000     0.0000 o          1 M33      -0.672000
      3 O2B         -0.5370     0.0000     1.5180 o          1 M33      -0.672000
      4 C3B         -0.6070    -1.4880    -0.8600 c3         1 M33      -0.040300
      5 PA          -0.3630     2.8970    -0.5130 p5         1 M33       0.939800
      6 O1A          1.0660     3.3760    -1.0820 o          1 M33      -0.674500
      7 O2A         -0.4360     3.1820     0.9380 o          1 M33      -0.674500
      8 O3A         -0.5350     1.3150    -0.7590 os         1 M33      -0.490800
      9 O5'         -1.5380     3.6900    -1.2750 os         1 M33      -0.499200
     10 C5'         -1.7210     5.1040    -1.1660 c3         1 M33       0.310400
     11 C4'         -2.9220     5.5290    -2.0130 c3         1 M33       0.146100
     12 O4'         -4.1490     5.0440    -1.4260 os         1 M33      -0.361600
     13 C3'         -3.0640     7.0670    -2.0110 c3         1 M33       0.125100
     14 O3'         -2.4900     7.6250    -3.1940 oh         1 M33      -0.558800
     15 C2'         -4.5910     7.3040    -1.9860 c3         1 M33       0.116100
     16 O2'         -5.0060     8.0150    -3.1540 oh         1 M33      -0.551800
     17 C1'         -5.1900     5.8800    -1.9770 c3         1 M33       0.131800
     18 N9          -6.3840     5.8340    -1.1270 na         1 M33       0.230000
     19 C8          -6.4180     5.5170     0.1980 cc         1 M33       0.287700
     20 N7          -7.6410     5.5760     0.6370 nd         1 M33      -0.530100
     21 C5          -8.4670     5.9330    -0.3750 ca         1 M33      -0.236200
     22 C6          -9.8510     6.1490    -0.4930 ca         1 M33       0.583200
     23 N6         -10.6870     5.9960     0.6000 nv         1 M33      -0.504500
     24 N1         -10.3390     6.5020    -1.6780 nb         1 M33      -0.763000
     25 C2          -9.5490     6.6500    -2.7260 ca         1 M33       0.659900
     26 N3          -8.2480     6.4580    -2.6630 nb         1 M33      -0.654000
     27 C4          -7.6690     6.1090    -1.5190 ca         1 M33       0.257800
     28 H3B1        -0.2540    -1.4820    -1.8840 hc         1 M33      -0.011633
     29 H3B2        -1.6900    -1.4920    -0.8520 hc         1 M33      -0.011633
     30 H3B3        -0.2380    -2.3720    -0.3550 hc         1 M33      -0.011633
     31 H5'1        -1.8990     5.3660    -0.1300 h1         1 M33      -0.014800
     32 H5'2        -0.8320     5.6120    -1.5200 h1         1 M33      -0.014800
     33 H4'         -2.8220     5.1640    -3.0280 h1         1 M33       0.042700
     34 H3'         -2.6040     7.4870    -1.1240 h1         1 M33       0.017700
     35 HO3'        -1.8900     8.3130    -2.9580 ho         1 M33       0.377000
     36 H2'         -4.8750     7.8380    -1.0880 h1         1 M33       0.005700
     37 HO2'        -5.0710     8.9340    -2.9550 ho         1 M33       0.377000
     38 H1'         -5.4270     5.5660    -2.9870 h2         1 M33       0.063700
     39 H8          -5.5550     5.2540     0.7970 h5         1 M33       0.061800
     40 HN61       -10.3070     5.7300     1.4870 hn         1 M33       0.271300
     41 HN62       -11.6700     6.1530     0.5030 hn         1 M33       0.271300
     42 H2          -9.9880     6.9380    -3.6740 h5         1 M33      -0.014900
@<TRIPOS>BOND
     1     1     2 1   
     2     1     3 1   
     3     1     4 1   
     4     1     8 1   
     5     4    28 1   
     6     4    29 1   
     7     4    30 1   
     8     5     6 1   
     9     5     7 1   
    10     5     8 1   
    11     5     9 1   
    12     9    10 1   
    13    10    11 1   
    14    10    31 1   
    15    10    32 1   
    16    11    12 1   
    17    11    13 1   
    18    11    33 1   
    19    12    17 1   
    20    13    14 1   
    21    13    15 1   
    22    13    34 1   
    23    14    35 1   
    24    15    16 1   
    25    15    17 1   
    26    15    36 1   
    27    16    37 1   
    28    17    18 1   
    29    17    38 1   
    30    18    19 1   
    31    18    27 1   
    32    19    20 2   
    33    19    39 1   
    34    20    21 1   
    35    21    22 ar  
    36    21    27 ar  
    37    22    23 1   
    38    22    24 ar  
    39    23    40 1   
    40    23    41 1   
    41    24    25 ar  
    42    25    26 ar  
    43    25    42 1   
    44    26    27 ar  
@<TRIPOS>SUBSTRUCTURE
     1 M33         1 TEMP              0 ****  ****    0 ROOT
