@<TRIPOS>MOLECULE
molecule
   42    44     1     0     0
SMALL
bcc


@<TRIPOS>ATOM
      1 PB           0.0000     0.0000     0.0000 p5         1 M33       1.268600
      2 O1B          1.4810     0.0000     0.0000 o          1 M33      -0.837500
      3 O2B         -0.5370     0.0000     1.5180 o          1 M33      -0.837500
      4 C3B         -0.6070    -1.4880    -0.8600 c3         1 M33      -0.297300
      5 PA          -0.3630     2.8970    -0.5130 p5         1 M33       1.428800
      6 O1A          1.0660     3.3760    -1.0820 o          1 M33      -0.834500
      7 O2A         -0.4360     3.1820     0.9380 o          1 M33      -0.834500
      8 O3A         -0.5350     1.3150    -0.7590 os         1 M33      -0.724800
      9 O5'         -1.5380     3.6900    -1.2750 os         1 M33      -0.597200
     10 C5'         -1.7210     5.1040    -1.1660 c3         1 M33       0.240400
     11 C4'         -2.9220     5.5290    -2.0130 c3         1 M33       0.123100
     12 O4'         -4.1490     5.0440    -1.4260 os         1 M33      -0.378600
     13 C3'         -3.0640     7.0670    -2.0110 c3         1 M33       0.084100
     14 O3'         -2.4900     7.6250    -3.1940 oh         1 M33      -0.577800
     15 C2'         -4.5910     7.3040    -1.9860 c3         1 M33       0.079100
     16 O2'         -5.0060     8.0150    -3.1540 oh         1 M33      -0.571800
     17 C1'         -5.1900     5.8800    -1.9770 c3         1 M33       0.247800
     18 N9          -6.3840     5.8340    -1.1270 na         1 M33      -0.240000
     19 C8          -6.4180     5.5170     0.1980 cc         1 M33       0.461700
     20 N7          -7.6410     5.5760     0.6370 nd         1 M33      -0.614100
     21 C5          -8.4670     5.9330    -0.3750 ca         1 M33      -0.205200
     22 C6          -9.8510     6.1490    -0.4930 ca         1 M33       0.775200
     23 N6         -10.6870     5.9960     0.6000 nv         1 M33      -0.995500
     24 N1         -10.3390     6.5020    -1.6780 nb         1 M33      -0.852000
     25 C2          -9.5490     6.6500    -2.7260 ca         1 M33       0.716900
     26 N3          -8.2480     6.4580    -2.6630 nb         1 M33      -0.773000
     27 C4          -7.6690     6.1090    -1.5190 ca         1 M33       0.468800
     28 H3B1        -0.2540    -1.4820    -1.8840 hc         1 M33       0.027367
     29 H3B2        -1.6900    -1.4920    -0.8520 hc         1 M33       0.027367
     30 H3B3        -0.2380    -2.3720    -0.3550 hc         1 M33       0.027367
     31 H5'1        -1.8990     5.3660    -0.1300 h1         1 M33       0.038200
     32 H5'2        -0.8320     5.6120    -1.5200 h1         1 M33       0.038200
     33 H4'         -2.8220     5.1640    -3.0280 h1         1 M33       0.084700
     34 H3'         -2.6040     7.4870    -1.1240 h1         1 M33       0.052700
     35 HO3'        -1.8900     8.3130    -2.9580 ho         1 M33       0.395000
     36 H2'         -4.8750     7.8380    -1.0880 h1         1 M33       0.043700
     37 HO2'        -5.0710     8.9340    -2.9550 ho         1 M33       0.394000
     38 H1'         -5.4270     5.5660    -2.9870 h2         1 M33       0.104700
     39 H8          -5.5550     5.2540     0.7970 h5         1 M33       0.110800
     40 HN61       -10.3070     5.7300     1.4870 hn         1 M33       0.443300
     41 HN62       -11.6700     6.1530     0.5030 hn         1 M33       0.443300
     42 H2          -9.9880     6.9380    -3.6740 h5         1 M33       0.049100
@<TRIPOS>BOND
     1    23    22 1
     2     7     5 1
     3    22    21 ar
     4    22    24 ar
     5    20    21 1
     6    20    19 2
     7     6     5 1
     8    10     9 1
     9    10    11 1
    10    21    27 ar
    11    24    25 ar
    12    12    11 1
    13    12    17 1
    14    19    18 1
    15     5     9 1
    16     5     8 1
    17    25    26 ar
    18    27    18 1
    19    27    26 ar
    20    11    13 1
    21    18    17 1
    22    17    15 1
    23     2     1 1
    24     8     1 1
    25    13    15 1
    26    13    14 1
    27    15    16 1
    28     3     1 1
    29     1     4 1
    30     4    28 1
    31     4    29 1
    32     4    30 1
    33    10    31 1
    34    10    32 1
    35    11    33 1
    36    13    34 1
    37    14    35 1
    38    15    36 1
    39    16    37 1
    40    17    38 1
    41    19    39 1
    42    23    40 1
    43    23    41 1
    44    25    42 1
@<TRIPOS>SUBSTRUCTURE
     1 M33         1 TEMP              0 ****  ****    0 ROOT
