@<TRIPOS>MOLECULE
molecule
   72    74     1     0     0
SMALL
bcc


@<TRIPOS>ATOM
      1 C7           0.0000     0.0000     0.0000 c3         1 M34      -0.173300
      2 S8           1.8140     0.0000     0.0000 s6         1 M34       1.324900
      3 C4          -0.5020     0.0000     1.4200 ca         1 M34      -0.087300
      4 C5          -0.7330     1.1970     2.0720 ca         1 M34      -0.109000
      5 C6          -1.1950     1.1960     3.3750 ca         1 M34      -0.125000
      6 C1          -1.4240    -0.0010     4.0270 ca         1 M34      -0.115000
      7 C2          -1.1930    -1.1980     3.3750 ca         1 M34      -0.125000
      8 C34         -0.7320    -1.1980     2.0720 ca         1 M34      -0.109000
      9 O7           2.3130    -1.1810     0.6150 o          1 M34      -0.609300
     10 O19          2.3130     1.2800     0.3610 o          1 M34      -0.609300
     11 N9           2.2280    -0.1650    -1.5960 n7         1 M34      -0.889100
     12 C10          1.8940     0.8930    -2.5520 c3         1 M34       0.186500
     13 C20          1.5560     0.2690    -3.9070 c3         1 M34      -0.094400
     14 C21          0.2980    -0.5910    -3.7740 c3         1 M34      -0.078700
     15 C22         -0.9000     0.3050    -3.4550 c3         1 M34      -0.091100
     16 C23          0.0450    -1.3330    -5.0870 c3         1 M34      -0.091100
     17 C11          3.0720     1.8210    -2.7050 c          1 M34       0.670100
     18 O24          4.0900     1.6180    -2.0780 o          1 M34      -0.553100
     19 N12          2.9940     2.8760    -3.5400 n          1 M34      -0.488800
     20 C13          4.0630     3.8560    -3.7840 c3         1 M34       0.050700
     21 C14          4.4350     4.5400    -2.4940 c          1 M34       0.638100
     22 O28          3.8670     4.2440    -1.4640 o          1 M34      -0.543100
     23 C27          3.5150     4.8920    -4.7880 c3         1 M34      -0.092400
     24 C26          1.9760     4.7560    -4.6240 c3         1 M34      -0.097400
     25 C25          1.8260     3.2360    -4.3640 c3         1 M34       0.097000
     26 N15          5.4000     5.4820    -2.4850 ns         1 M34      -0.610900
     27 C16          5.7620     6.1460    -1.2300 c3         1 M34       0.159300
     28 C17          6.8580     7.1490    -1.4910 ca         1 M34      -0.078300
     29 C29          6.5490     8.3870    -2.0190 ca         1 M34      -0.193300
     30 C35          5.1180     8.7370    -2.3350 c3         1 M34       0.159100
     31 N36          4.4250     9.1310    -1.1010 nz         1 M34      -0.812600
     32 C33          7.5530     9.3080    -2.2580 ca         1 M34      -0.087000
     33 C32          8.8660     8.9880    -1.9700 ca         1 M34      -0.109000
     34 C31          9.1750     7.7490    -1.4360 ca         1 M34       0.060400
     35 Cl28        10.8240     7.3500    -1.0660 cl         1 M34      -0.036400
     36 C30          8.1690     6.8290    -1.1970 ca         1 M34      -0.097000
     37 H7          -0.3610    -0.8850    -0.5110 h1         1 M34       0.097700
     38 H7A         -0.3610     0.8840    -0.5110 h1         1 M34       0.097700
     39 H5          -0.5650     2.1350     1.5570 ha         1 M34       0.135500
     40 H6          -1.3720     2.1340     3.8870 ha         1 M34       0.135500
     41 H1          -1.8060    -0.0020     5.0410 ha         1 M34       0.136000
     42 H2          -1.3770    -2.1360     3.8840 ha         1 M34       0.135500
     43 H34         -0.7010    -2.1640     1.5840 ha         1 M34       0.135500
     44 HN9          2.7350    -0.9730    -1.9000 hn         1 M34       0.465800
     45 H10          1.0400     1.4510    -2.1890 h1         1 M34       0.071700
     46 H20          2.3830    -0.3500    -4.2360 hc         1 M34       0.058200
     47 H20A         1.3820     1.0540    -4.6330 hc         1 M34       0.058200
     48 H21          0.4340    -1.3080    -2.9740 hc         1 M34       0.057700
     49 H22         -1.1480     0.9010    -4.3250 hc         1 M34       0.037867
     50 H22A        -1.7500    -0.3100    -3.1850 hc         1 M34       0.037867
     51 H22B        -0.6520     0.9600    -2.6280 hc         1 M34       0.037867
     52 H23         -0.8440    -1.9450    -4.9900 hc         1 M34       0.037867
     53 H23A         0.8950    -1.9650    -5.3140 hc         1 M34       0.037867
     54 H23B        -0.0960    -0.6160    -5.8860 hc         1 M34       0.037867
     55 H13          4.9270     3.3580    -4.2060 h1         1 M34       0.085700
     56 H27          3.8140     4.6390    -5.7980 hc         1 M34       0.052700
     57 H27A         3.8400     5.8900    -4.5220 hc         1 M34       0.052700
     58 H26          1.6260     5.3290    -3.7740 hc         1 M34       0.059200
     59 H26A         1.4640     5.0440    -5.5340 hc         1 M34       0.059200
     60 H25          1.8440     2.6910    -5.3000 h1         1 M34       0.056200
     61 H25A         0.9090     3.0370    -3.8220 h1         1 M34       0.056200
     62 HN15         5.9170     5.6750    -3.3190 hn         1 M34       0.320500
     63 H16          4.8950     6.6560    -0.8280 h1         1 M34       0.052200
     64 H16A         6.1100     5.4080    -0.5180 h1         1 M34       0.052200
     65 H35          4.6230     7.8760    -2.7680 hx         1 M34       0.113700
     66 H35A         5.0940     9.5590    -3.0410 hx         1 M34       0.113700
     67 HN36         4.1990    10.1050    -1.1420 hn         1 M34       0.457133
     68 HN3A         3.5840     8.5970    -1.0050 hn         1 M34       0.457133
     69 H33          7.3130    10.2720    -2.6890 ha         1 M34       0.146000
     70 H32          9.6530     9.7070    -2.1610 ha         1 M34       0.172000
     71 H30          8.4830     5.9370    -0.6690 ha         1 M34       0.179000
     72 H363         5.0150     8.9470    -0.3140 hn         1 M34       0.457133
@<TRIPOS>BOND
     1     6     7 ar
     2     6     5 ar
     3     7     8 ar
     4     3     4 ar
     5     3     1 1
     6     3     8 ar
     7     4     5 ar
     8     1     2 1
     9     9     2 2
    10     2    11 1
    11     2    10 2
    12    11    12 1
    13    12    17 1
    14    12    13 1
    15    17    19 1
    16    17    18 2
    17    19    20 1
    18    19    25 1
    19    20    21 1
    20    20    23 1
    21    21    26 1
    22    21    22 2
    23    26    27 1
    24    27    28 1
    25    28    29 ar
    26    28    36 ar
    27    13    14 1
    28    14    15 1
    29    14    16 1
    30    25    24 1
    31    24    23 1
    32    35    34 1
    33    29    32 ar
    34    29    30 1
    35    36    34 ar
    36    34    33 ar
    37    33    32 ar
    38    30    31 1
    39     6    41 1
    40     7    42 1
    41     4    39 1
    42     5    40 1
    43     1    37 1
    44     1    38 1
    45    11    44 1
    46    12    45 1
    47    20    55 1
    48    26    62 1
    49    27    63 1
    50    27    64 1
    51    13    46 1
    52    13    47 1
    53    14    48 1
    54    15    49 1
    55    15    50 1
    56    15    51 1
    57    16    52 1
    58    16    53 1
    59    16    54 1
    60    25    60 1
    61    25    61 1
    62    24    58 1
    63    24    59 1
    64    23    56 1
    65    23    57 1
    66    36    71 1
    67    33    70 1
    68    32    69 1
    69     8    43 1
    70    30    65 1
    71    30    66 1
    72    31    67 1
    73    31    68 1
    74    72    31 1
@<TRIPOS>SUBSTRUCTURE
     1 M34         1 TEMP              0 ****  ****    0 ROOT
