@<TRIPOS>MOLECULE
molecule
   58    61     1     0     0
SMALL
bcc


@<TRIPOS>ATOM
      1 C1           0.0000     0.0000     0.0000 ca         1 M35      -0.093000
      2 F1           4.0770    -1.7140     7.1990 f          1 M35      -0.204300
      3 N1           2.0800    -0.0010     3.6110 na         1 M35       0.164300
      4 S1           6.6910     4.7170    -1.8760 sy         1 M35       1.192300
      5 C2           1.3830     0.0000     0.0000 ca         1 M35      -0.100000
      6 F2           1.8800    -2.3170     7.0250 f          1 M35      -0.204300
      7 C3           2.0760     0.0000     1.1950 ca         1 M35      -0.034000
      8 F3           2.4450    -0.3310     8.0040 f          1 M35      -0.204300
      9 N3          -2.6960    -1.3760     1.1870 nz         1 M35      -0.813600
     10 O3           3.1980     2.1540     2.0320 o          1 M35      -0.602100
     11 C4           1.3820    -0.0010     2.3970 ca         1 M35       0.039800
     12 F4           7.4700     3.2200     3.8060 f          1 M35      -0.140900
     13 O4           6.9180     4.8620    -3.2710 o          1 M35      -0.625800
     14 C5          -0.0080    -0.0000     2.3950 ca         1 M35      -0.089000
     15 N5           4.8040     2.5400     3.5180 ns         1 M35      -0.437100
     16 O5           5.3730     4.5860    -1.3580 o          1 M35      -0.625800
     17 C6          -0.6940     0.0000     1.1960 ca         1 M35      -0.198300
     18 N6           1.8460    -0.8520     4.6990 nc         1 M35      -0.446800
     19 C7           5.3900     3.5070     2.6960 ca         1 M35       0.014600
     20 C9           7.7770     3.4390    -1.1840 c3         1 M35      -0.226300
     21 C10          2.6940    -0.5600     5.6540 cd         1 M35       0.265600
     22 C11          2.7760    -1.2420     6.9950 c3         1 M35       0.616600
     23 C12          3.5090     0.4870     5.2270 cd         1 M35      -0.252300
     24 C13          3.1200     0.8250     3.9460 cc         1 M35      -0.117900
     25 C14          7.3110     4.7920     2.0460 ca         1 M35      -0.125000
     26 C15          7.6410     7.6440     0.7340 ca         1 M35      -0.134000
     27 C16          6.5490     5.4270     1.0660 cp         1 M35      -0.099000
     28 C17          7.1700     6.4510     0.1910 cp         1 M35       0.046000
     29 C18          5.2040     5.0990     0.9110 ca         1 M35      -0.046000
     30 C20         -2.2010     0.0070     1.1920 c3         1 M35       0.163100
     31 C21          7.2840     6.2230    -1.1800 ca         1 M35      -0.285500
     32 C22          4.6290     4.1440     1.7230 ca         1 M35      -0.132000
     33 C23          8.2180     8.5930    -0.0850 ca         1 M35      -0.072000
     34 C24          7.8620     7.1790    -1.9900 ca         1 M35      -0.023000
     35 C26          8.3340     8.3600    -1.4430 ca         1 M35      -0.142000
     36 C44          6.7330     3.8360     2.8560 ca         1 M35       0.085900
     37 H1          -0.5410     0.0000    -0.9390 ha         1 M35       0.140000
     38 H2           1.9240     0.0000    -0.9390 ha         1 M35       0.169000
     39 H3           3.1590    -0.0000     1.1940 ha         1 M35       0.176000
     40 HN3         -2.8980    -1.6550     0.2480 hn         1 M35       0.455800
     41 HN3A        -1.9990    -1.9810     1.5730 hn         1 M35       0.455800
     42 H5          -0.5520     0.0000     3.3310 ha         1 M35       0.153000
     43 HN5          5.1750     2.3690     4.4320 hn         1 M35       0.342500
     44 H9           8.4810     3.8960    -0.4990 h1         1 M35       0.102367
     45 H9A          7.1800     2.7070    -0.6530 h1         1 M35       0.102367
     46 H9B          8.3180     2.9520    -1.9850 h1         1 M35       0.102367
     47 H12          4.3070     0.9490     5.7950 ha         1 M35       0.183000
     48 H14          8.3450     5.0790     2.1990 ha         1 M35       0.158000
     49 H15          7.5510     7.8280     1.7980 ha         1 M35       0.143000
     50 H18          4.6090     5.5930     0.1520 ha         1 M35       0.186000
     51 H20         -2.5580     0.5210     0.3080 hx         1 M35       0.113700
     52 H20A        -2.5630     0.5170     2.0770 hx         1 M35       0.113700
     53 H22          3.5830     3.8890     1.6020 ha         1 M35       0.186000
     54 H23          8.5860     9.5200     0.3370 ha         1 M35       0.142000
     55 H24          7.9550     7.0010    -3.0550 ha         1 M35       0.165000
     56 H26          8.7870     9.1070    -2.0830 ha         1 M35       0.145000
     57 C8           3.7060     1.8780     3.1030 c          1 M35       0.694700
     58 H33         -3.5250    -1.4350     1.7450 hn         1 M35       0.455800
@<TRIPOS>BOND
     1     5     1 ar
     2     1    17 ar
     3     1    37 1
     4    22     2 1
     5    18     3 1
     6    24     3 1
     7     3    11 1
     8    20     4 1
     9    16     4 2
    10    13     4 2
    11     4    31 1
    12     7     5 ar
    13     5    38 1
    14     6    22 1
    15     7    11 ar
    16     7    39 1
    17     8    22 1
    18    30     9 1
    19     9    40 1
    20     9    41 1
    21    57    10 2
    22    11    14 ar
    23    12    36 1
    24    14    17 ar
    25    14    42 1
    26    15    19 1
    27    15    57 1
    28    15    43 1
    29    17    30 1
    30    21    18 2
    31    36    19 ar
    32    19    32 ar
    33    24    57 1
    34    20    44 1
    35    20    45 1
    36    20    46 1
    37    22    21 1
    38    21    23 1
    39    23    24 2
    40    23    47 1
    41    36    25 ar
    42    25    27 ar
    43    25    48 1
    44    28    26 ar
    45    26    33 ar
    46    26    49 1
    47    27    29 ar
    48    27    28 1
    49    31    28 ar
    50    32    29 ar
    51    29    50 1
    52    30    51 1
    53    30    52 1
    54    31    34 ar
    55    32    53 1
    56    35    33 ar
    57    33    54 1
    58    34    35 ar
    59    34    55 1
    60    35    56 1
    61    58     9 1
@<TRIPOS>SUBSTRUCTURE
     1 M35         1 TEMP              0 ****  ****    0 ROOT
