@<TRIPOS>MOLECULE
molecule
   58    61     1     0     0
SMALL
bcc


@<TRIPOS>ATOM
      1 C1           0.0000     0.0000     0.0000 ca         1 M37      -0.093000
      2 F1           2.5650     2.7720     6.6340 f          1 M37      -0.195967
      3 N1           2.0810    -0.0010     3.6110 na         1 M37       0.114300
      4 S1           5.1670    -6.7740    -1.1780 sy         1 M37       1.241200
      5 C2           1.3830     0.0000     0.0000 ca         1 M37      -0.083000
      6 F2           4.6260     1.7920     6.7480 f          1 M37      -0.195967
      7 N2           4.3120    -5.5540    -1.9000 nz         1 M37      -0.809500
      8 C3           2.0750     0.0000     1.1950 ca         1 M37      -0.119000
      9 F3           2.8680     0.8930     7.8980 f          1 M37      -0.195967
     10 N3          -0.8030     1.3620     4.2430 nz         1 M37      -0.806600
     11 O3           3.6920    -3.1960     4.0570 o          1 M37      -0.532100
     12 C4           1.3810    -0.0000     2.3980 ca         1 M37       0.012800
     13 F4           0.4820    -3.6560     0.5660 f          1 M37      -0.137900
     14 O4           6.0360    -7.2990    -2.1720 o          1 M37      -0.523800
     15 C5          -0.0070    -0.0010     2.3950 ca         1 M37      -0.172300
     16 N5           2.3280    -2.6820     2.3800 ns         1 M37      -0.476100
     17 O5           5.6280    -6.2610     0.0640 o          1 M37      -0.523800
     18 C6          -0.6940    -0.0010     1.1960 ca         1 M37      -0.082000
     19 N6           2.1710     1.0670     4.5130 nc         1 M37      -0.504800
     20 C7           2.4840    -3.9490     1.8100 ca         1 M37       0.040600
     21 C9          -0.7640    -0.0020     3.6980 c3         1 M37       0.165100
     22 C10          2.9060     0.6970     5.5320 cd         1 M37       0.274600
     23 C11          3.2470     1.5540     6.7250 c3         1 M37       0.615600
     24 C12          3.3210    -0.6170     5.3340 cd         1 M37      -0.194300
     25 C13          2.7940    -1.0470     4.1330 cc         1 M37      -0.123900
     26 C14          1.6970    -5.6730     0.3360 ca         1 M37      -0.155000
     27 C15          2.0580    -8.8250     0.3770 ca         1 M37      -0.113000
     28 C16          2.7940    -6.4620     0.6800 cp         1 M37      -0.160000
     29 C17          2.9610    -7.8060     0.0770 cp         1 M37       0.040000
     30 C18          3.7310    -5.9870     1.5960 ca         1 M37      -0.061000
     31 C21          4.0210    -8.0560    -0.7920 ca         1 M37      -0.327500
     32 C22          3.5750    -4.7370     2.1570 ca         1 M37      -0.129000
     33 C23          2.2210   -10.0760    -0.1830 ca         1 M37      -0.028000
     34 C24          4.1720    -9.3100    -1.3510 ca         1 M37      -0.007000
     35 C26          3.2760   -10.3180    -1.0450 ca         1 M37      -0.120000
     36 C44          1.5440    -4.4220     0.8990 ca         1 M37       0.073900
     37 H1          -0.5410    -0.0000    -0.9390 ha         1 M37       0.174000
     38 H2           1.9240     0.0010    -0.9380 ha         1 M37       0.167000
     39 HN2          3.3560    -5.8320    -2.0040 hn         1 M37       0.493133
     40 HN2A         4.7030    -5.3610    -2.8010 hn         1 M37       0.493133
     41 H3           3.1580     0.0000     1.1950 ha         1 M37       0.174000
     42 HN3         -0.5770     1.3390     5.2170 hn         1 M37       0.464800
     43 HN5          1.7080    -2.0180     1.9600 hn         1 M37       0.338500
     44 H6          -1.7780    -0.0010     1.1930 ha         1 M37       0.161000
     45 H9          -0.2690    -0.6580     4.4030 hx         1 M37       0.116200
     46 H12          3.9400    -1.2000     6.0060 ha         1 M37       0.215000
     47 H14          0.9410    -6.0600    -0.3360 ha         1 M37       0.163000
     48 H15          1.2320    -8.6360     1.0520 ha         1 M37       0.166000
     49 H18          4.5830    -6.5990     1.8670 ha         1 M37       0.192000
     50 H22          4.3030    -4.3680     2.8690 ha         1 M37       0.217000
     51 H23          1.5210   -10.8690     0.0520 ha         1 M37       0.171000
     52 H24          4.9960    -9.5050    -2.0270 ha         1 M37       0.175000
     53 H26          3.3990   -11.3010    -1.4840 ha         1 M37       0.175000
     54 H181        -1.7210     1.7440     4.1220 hn         1 M37       0.464800
     55 H19         -1.7750    -0.3510     3.5280 hx         1 M37       0.116200
     56 C8           2.9690    -2.3740     3.5260 c          1 M37       0.696700
     57 H231         4.3520    -4.7340    -1.3270 hn         1 M37       0.493133
     58 H33         -0.1350     1.9330     3.7630 hn         1 M37       0.464800
@<TRIPOS>BOND
     1     1    18 ar
     2     1    37 1
     3     2    23 1
     4     3    12 1
     5     3    19 1
     6     4    31 1
     7     4    14 2
     8     5     1 ar
     9     5    38 1
    10     7     4 1
    11     7    39 1
    12     7    40 1
    13     8     5 ar
    14     8    12 ar
    15     8    41 1
    16    10    42 1
    17    11    56 2
    18    12    15 ar
    19    13    36 1
    20    15    18 ar
    21    15    21 1
    22    16    56 1
    23    16    43 1
    24    17     4 2
    25    18    44 1
    26    20    16 1
    27    20    32 ar
    28    56    25 1
    29    21    10 1
    30    21    45 1
    31    22    19 2
    32    22    23 1
    33    23     6 1
    34    23     9 1
    35    24    22 1
    36    24    46 1
    37    25     3 1
    38    25    24 2
    39    26    28 ar
    40    26    36 ar
    41    26    47 1
    42    27    48 1
    43    28    30 ar
    44    29    27 ar
    45    29    28 1
    46    30    32 ar
    47    30    49 1
    48    31    29 ar
    49    32    50 1
    50    33    27 ar
    51    33    51 1
    52    34    31 ar
    53    34    35 ar
    54    34    52 1
    55    35    33 ar
    56    35    53 1
    57    36    20 ar
    58    10    54 1
    59    21    55 1
    60    57     7 1
    61    58    10 1
@<TRIPOS>SUBSTRUCTURE
     1 M37         1 TEMP              0 ****  ****    0 ROOT
