@<TRIPOS>MOLECULE
M37
   58    61     1     0     0
SMALL
bcc


@<TRIPOS>ATOM
      1 C1           0.0000     0.0000     0.0000 ca         1 M37      -0.044000
      2 F1           2.5650     2.7720     6.6340 f          1 M37      -0.188967
      3 N1           2.0810    -0.0010     3.6110 na         1 M37       0.575300
      4 S1           5.1670    -6.7740    -1.1780 sy         1 M37       0.940200
      5 C2           1.3830     0.0000     0.0000 ca         1 M37      -0.049000
      6 F2           4.6260     1.7920     6.7480 f          1 M37      -0.188967
      7 N2           4.3120    -5.5540    -1.9000 nz         1 M37      -0.153500
      8 C3           2.0750     0.0000     1.1950 ca         1 M37      -0.075000
      9 F3           2.8680     0.8930     7.8980 f          1 M37      -0.188967
     10 N3          -0.8030     1.3620     4.2430 nz         1 M37       0.067400
     11 O3           3.6920    -3.1960     4.0570 o          1 M37      -0.567100
     12 C4           1.3810    -0.0000     2.3980 ca         1 M37      -0.153200
     13 F4           0.4820    -3.6560     0.5660 f          1 M37      -0.123900
     14 O4           6.0360    -7.2990    -2.1720 o          1 M37      -0.497800
     15 C5          -0.0070    -0.0010     2.3950 ca         1 M37      -0.169300
     16 N5           2.3280    -2.6820     2.3800 ns         1 M37      -0.060100
     17 O5           5.6280    -6.2610     0.0640 o          1 M37      -0.497800
     18 C6          -0.6940    -0.0010     1.1960 ca         1 M37      -0.046000
     19 N6           2.1710     1.0670     4.5130 nc         1 M37      -0.647800
     20 C7           2.4840    -3.9490     1.8100 ca         1 M37      -0.093400
     21 C9          -0.7640    -0.0020     3.6980 c3         1 M37       0.033100
     22 C10          2.9060     0.6970     5.5320 cd         1 M37       0.280600
     23 C11          3.2470     1.5540     6.7250 c3         1 M37       0.572600
     24 C12          3.3210    -0.6170     5.3340 cd         1 M37      -0.148300
     25 C13          2.7940    -1.0470     4.1330 cc         1 M37      -0.303900
     26 C14          1.6970    -5.6730     0.3360 ca         1 M37      -0.120000
     27 C15          2.0580    -8.8250     0.3770 ca         1 M37      -0.091000
     28 C16          2.7940    -6.4620     0.6800 cp         1 M37      -0.158000
     29 C17          2.9610    -7.8060     0.0770 cp         1 M37       0.053000
     30 C18          3.7310    -5.9870     1.5960 ca         1 M37      -0.021000
     31 C21          4.0210    -8.0560    -0.7920 ca         1 M37      -0.207500
     32 C22          3.5750    -4.7370     2.1570 ca         1 M37      -0.114000
     33 C23          2.2210   -10.0760    -0.1830 ca         1 M37       0.011000
     34 C24          4.1720    -9.3100    -1.3510 ca         1 M37       0.036000
     35 C26          3.2760   -10.3180    -1.0450 ca         1 M37      -0.096000
     36 C44          1.5440    -4.4220     0.8990 ca         1 M37       0.042900
     37 H1          -0.5410    -0.0000    -0.9390 ha         1 M37       0.137000
     38 H2           1.9240     0.0010    -0.9380 ha         1 M37       0.129000
     39 HN2          3.3560    -5.8320    -2.0040 hn         1 M37       0.318467
     40 HN2A         4.7030    -5.3610    -2.8010 hn         1 M37       0.318467
     41 H3           3.1580     0.0000     1.1950 ha         1 M37       0.138000
     42 HN3         -0.5770     1.3390     5.2170 hn         1 M37       0.237133
     43 HN5          1.7080    -2.0180     1.9600 hn         1 M37       0.191500
     44 H6          -1.7780    -0.0010     1.1930 ha         1 M37       0.129000
     45 H9          -0.2690    -0.6580     4.4030 hx         1 M37       0.085700
     46 H12          3.9400    -1.2000     6.0060 ha         1 M37       0.180000
     47 H14          0.9410    -6.0600    -0.3360 ha         1 M37       0.135000
     48 H15          1.2320    -8.6360     1.0520 ha         1 M37       0.133000
     49 H18          4.5830    -6.5990     1.8670 ha         1 M37       0.162000
     50 H22          4.3030    -4.3680     2.8690 ha         1 M37       0.196000
     51 H23          1.5210   -10.8690     0.0520 ha         1 M37       0.129000
     52 H24          4.9960    -9.5050    -2.0270 ha         1 M37       0.142000
     53 H26          3.3990   -11.3010    -1.4840 ha         1 M37       0.138000
     54 H181        -1.7210     1.7440     4.1220 hn         1 M37       0.237133
     55 H19         -1.7750    -0.3510     3.5280 hx         1 M37       0.085700
     56 C8           2.9690    -2.3740     3.5260 c          1 M37       0.615700
     57 H231         4.3520    -4.7340    -1.3270 hn         1 M37       0.318467
     58 H33         -0.1350     1.9330     3.7630 hn         1 M37       0.237133
@<TRIPOS>BOND
     1     1     5 ar  
     2     1    18 ar  
     3     1    37 1   
     4     2    23 1   
     5     3    12 1   
     6     3    19 1   
     7     3    25 1   
     8     4     7 1   
     9     4    14 2   
    10     4    17 2   
    11     4    31 1   
    12     5     8 ar  
    13     5    38 1   
    14     6    23 1   
    15     7    39 1   
    16     7    40 1   
    17     7    57 1   
    18     8    12 ar  
    19     8    41 1   
    20     9    23 1   
    21    10    21 1   
    22    10    42 1   
    23    10    54 1   
    24    10    58 1   
    25    11    56 2   
    26    12    15 ar  
    27    13    36 1   
    28    15    18 ar  
    29    15    21 1   
    30    16    20 1   
    31    16    43 1   
    32    16    56 1   
    33    18    44 1   
    34    19    22 2   
    35    20    32 ar  
    36    20    36 ar  
    37    21    45 1   
    38    21    55 1   
    39    22    23 1   
    40    22    24 1   
    41    24    25 2   
    42    24    46 1   
    43    25    56 1   
    44    26    28 ar  
    45    26    36 ar  
    46    26    47 1   
    47    27    29 ar  
    48    27    33 ar  
    49    27    48 1   
    50    28    29 1   
    51    28    30 ar  
    52    29    31 ar  
    53    30    32 ar  
    54    30    49 1   
    55    31    34 ar  
    56    32    50 1   
    57    33    35 ar  
    58    33    51 1   
    59    34    35 ar  
    60    34    52 1   
    61    35    53 1   
@<TRIPOS>SUBSTRUCTURE
     1 M37         1 TEMP              0 ****  ****    0 ROOT
