@<TRIPOS>MOLECULE
M38
   39    42     1     0     0
SMALL
bcc


@<TRIPOS>ATOM
      1 C1         -0.0210    0.1420   -0.0430 ca        1 M38     -0.154000
      2 C2          1.3550    0.2750   -0.0480 ca        1 M38     -0.097000
      3 C3          2.0730    0.3290    1.1580 ca        1 M38     -0.183000
      4 C4          1.4040    0.2500    2.3670 ca        1 M38     -0.059000
      5 C5          0.0040    0.1160    2.3910 ca        1 M38     -0.187600
      6 C6         -0.7210    0.0600    1.1810 ca        1 M38      0.082200
      7 C7         -2.1310   -0.0800    1.2710 cc        1 M38     -0.326400
      8 C8         -2.7810   -0.1600    2.5230 cd        1 M38      0.218400
      9 C9         -0.6840    0.0340    3.6900 c         1 M38      0.703100
     10 N10        -2.1070   -0.0880    3.7070 n         1 M38     -0.306000
     11 C11        -3.1170   -0.1680    0.1790 c         1 M38      0.620900
     12 C12        -4.4380   -0.3160    0.8590 ca        1 M38     -0.166600
     13 C13        -4.2420   -0.3140    2.2800 ca        1 M38     -0.089800
     14 C14        -5.6920   -0.4450    0.3080 ca        1 M38     -0.086000
     15 C15        -6.7950   -0.5790    1.1740 ca        1 M38     -0.141000
     16 C16        -6.6120   -0.5800    2.5460 ca        1 M38     -0.106000
     17 C17        -5.3290   -0.4490    3.1200 ca        1 M38     -0.074000
     18 O18        -2.9210   -0.1300   -1.0370 o         1 M38     -0.553100
     19 O19        -6.1650   -1.8630    7.0630 o         1 M38     -0.847800
     20 O20        -5.4750    0.0700    6.1970 o         1 M38     -0.847800
     21 O21        -0.0690    0.0780    4.7740 o         1 M38     -0.630500
     22 C22        -2.7680   -0.1660    5.0060 c3        1 M38      0.044000
     23 C23        -3.0780   -1.5870    5.4750 c3        1 M38     -0.068400
     24 C24        -5.2500   -1.0850    6.6810 c         1 M38      0.901600
     25 C25        -3.7930   -1.5520    6.8070 c3        1 M38     -0.198400
     26 H1         -0.5960    0.0980   -0.9830 ha        1 M38      0.160000
     27 H2          1.8970    0.3390   -1.0030 ha        1 M38      0.122000
     28 H3          3.1670    0.4340    1.1370 ha        1 M38      0.124000
     29 H4          1.9480    0.2900    3.3250 ha        1 M38      0.149000
     30 H14        -5.8290   -0.4450   -0.7830 ha        1 M38      0.139000
     31 H15        -7.8030   -0.6820    0.7480 ha        1 M38      0.126000
     32 H16        -7.4730   -0.6850    3.2280 ha        1 M38      0.157000
     33 H17        -5.2560   -0.4550    4.2310 ha        1 M38      0.232000
     34 H221       -2.0860    0.3190    5.7640 h1        1 M38      0.104700
     35 H222       -3.7230    0.4410    4.9810 h1        1 M38      0.104700
     36 H231       -2.1230   -2.1670    5.5700 hc        1 M38      0.031700
     37 H232       -3.7200   -2.1120    4.7200 hc        1 M38      0.031700
     38 H251       -3.2620   -0.8630    7.5110 hc        1 M38      0.036200
     39 H252       -3.7820   -2.5800    7.2520 hc        1 M38      0.036200
@<TRIPOS>BOND
     1    1    2 ar
     2    1    6 ar
     3    1   26 1
     4    2    3 ar
     5    2   27 1
     6    3    4 ar
     7    3   28 1
     8    4    5 ar
     9    4   29 1
    10    5    6 ar
    11    5    9 1
    12    6    7 1
    13    7    8 2
    14    7   11 1
    15    8   10 1
    16    8   13 1
    17    9   10 1
    18    9   21 2
    19   10   22 1
    20   11   12 1
    21   11   18 2
    22   12   13 ar
    23   12   14 ar
    24   13   17 ar
    25   14   15 ar
    26   14   30 1
    27   15   16 ar
    28   15   31 1
    29   16   17 ar
    30   16   32 1
    31   17   33 1
    32   19   24 1
    33   20   24 1
    34   22   23 1
    35   22   34 1
    36   22   35 1
    37   23   25 1
    38   23   36 1
    39   23   37 1
    40   24   25 1
    41   25   38 1
    42   25   39 1
@<TRIPOS>SUBSTRUCTURE
     1 M38         1 TEMP              0 ****  ****    0 ROOT
