@<TRIPOS>MOLECULE
molecule
   41    44     1     0     0
SMALL
bcc


@<TRIPOS>ATOM
      1 O10          0.0000     0.0000     0.0000 o          1 M39      -0.610500
      2 C9           1.2170     0.0000     0.0000 c          1 M39       0.752100
      3 C3           1.9770     0.0000     1.2530 cc         1 M39      -0.434900
      4 C4           1.6650    -0.0000     2.5910 cd         1 M39      -0.023300
      5 N5           2.8170     0.0000     3.2800 na         1 M39      -0.023600
      6 N1           3.9000     0.0000     2.3940 nc         1 M39      -0.494800
      7 C2           3.4470    -0.0000     1.1620 cd         1 M39       0.591300
      8 N6           4.0160     0.0000    -0.0730 nd         1 M39      -0.732700
      9 N8           1.9180    -0.0050    -1.1580 n          1 M39      -0.286500
     10 C19          1.2310    -0.0100    -2.3780 ca         1 M39       0.007600
     11 C20          0.8890     1.1900    -2.9890 ca         1 M39      -0.093000
     12 C21          0.2110     1.1820    -4.1920 ca         1 M39      -0.132000
     13 C22         -0.1280    -0.0190    -4.7880 ca         1 M39      -0.107000
     14 C23          0.2100    -1.2150    -4.1820 ca         1 M39      -0.127000
     15 C24          0.8940    -1.2140    -2.9820 ca         1 M39      -0.049300
     16 C25          1.2680    -2.5170    -2.3260 c3         1 M39      -0.053800
     17 C7           3.2870     0.0000    -1.1580 cc         1 M39       0.543800
     18 S11          4.1150     0.0000    -2.7130 ss         1 M39      -0.152300
     19 C12          5.8360     0.0000    -2.1520 c3         1 M39       0.046000
     20 C13          6.7540     0.0010    -3.3480 ca         1 M39      -0.063300
     21 C18          7.1750     1.1970    -3.8950 ca         1 M39      -0.151000
     22 C17          8.0180     1.1960    -4.9930 ca         1 M39       0.133900
     23 F26          8.4310     2.3670    -5.5300 f          1 M39      -0.138900
     24 C14          7.1790    -1.1970    -3.8920 ca         1 M39      -0.127000
     25 C15          8.0220    -1.1990    -4.9880 ca         1 M39      -0.103000
     26 C16          8.4400    -0.0030    -5.5410 ca         1 M39      -0.160000
     27 H1           0.6680    -0.0000     3.0140 h4         1 M39       0.188000
     28 H2           2.8900     0.0010     4.2780 hn         1 M39       0.338700
     29 H3           1.1550     2.1300    -2.5230 ha         1 M39       0.142000
     30 H4          -0.0550     2.1170    -4.6690 ha         1 M39       0.137000
     31 H5          -0.6620    -0.0220    -5.7300 ha         1 M39       0.133000
     32 H6          -0.0550    -2.1540    -4.6530 ha         1 M39       0.137000
     33 H7           0.6490    -2.6720    -1.4500 hc         1 M39       0.050700
     34 H8           1.1150    -3.3310    -3.0240 hc         1 M39       0.050700
     35 H9           2.3100    -2.4870    -2.0310 hc         1 M39       0.050700
     36 H10          6.0210     0.8850    -1.5550 h1         1 M39       0.092200
     37 H11          6.0220    -0.8840    -1.5540 h1         1 M39       0.092200
     38 H12          6.8560     2.1350    -3.4570 ha         1 M39       0.151000
     39 H13          6.8520    -2.1350    -3.4590 ha         1 M39       0.140000
     40 H14          8.3530    -2.1380    -5.4150 ha         1 M39       0.140000
     41 H15          9.1000    -0.0040    -6.4000 ha         1 M39       0.147000
@<TRIPOS>BOND
     1    23    22 1
     2    26    22 ar
     3    26    25 ar
     4    22    21 ar
     5    25    24 ar
     6    21    20 ar
     7    24    20 ar
     8    20    19 1
     9    19    18 1
    10     6     5 1
    11     6     7 2
    12     8     7 1
    13     8    17 2
    14     5     4 1
    15     7     3 1
    16    18    17 1
    17    17     9 1
    18     4     3 2
    19     3     2 1
    20     9     2 1
    21     9    10 1
    22     2     1 2
    23    10    11 ar
    24    10    15 ar
    25    11    12 ar
    26    16    15 1
    27    15    14 ar
    28    12    13 ar
    29    14    13 ar
    30     4    27 1
    31     5    28 1
    32    11    29 1
    33    12    30 1
    34    13    31 1
    35    14    32 1
    36    16    33 1
    37    16    34 1
    38    16    35 1
    39    19    36 1
    40    19    37 1
    41    21    38 1
    42    24    39 1
    43    25    40 1
    44    26    41 1
@<TRIPOS>SUBSTRUCTURE
     1 M39         1 TEMP              0 ****  ****    0 ROOT
