@<TRIPOS>MOLECULE
M39
   41    44     1     0     0
SMALL
bcc


@<TRIPOS>ATOM
      1 O10          0.0000     0.0000     0.0000 o          1 M39      -0.653500
      2 C9           1.2170     0.0000     0.0000 c          1 M39       0.664100
      3 C3           1.9770     0.0000     1.2530 cc         1 M39      -0.453900
      4 C4           1.6650    -0.0000     2.5910 cd         1 M39      -0.167300
      5 N5           2.8170     0.0000     3.2800 na         1 M39       0.480400
      6 N1           3.9000     0.0000     2.3940 nd         1 M39      -0.646800
      7 C2           3.4470    -0.0000     1.1620 cc         1 M39       0.578300
      8 N6           4.0160     0.0000    -0.0730 nc         1 M39      -0.623700
      9 N8           1.9180    -0.0050    -1.1580 n          1 M39       0.174500
     10 C19          1.2310    -0.0100    -2.3780 ca         1 M39      -0.136400
     11 C20          0.8890     1.1900    -2.9890 ca         1 M39      -0.052000
     12 C21          0.2110     1.1820    -4.1920 ca         1 M39      -0.106000
     13 C22         -0.1280    -0.0190    -4.7880 ca         1 M39      -0.069000
     14 C23          0.2100    -1.2150    -4.1820 ca         1 M39      -0.102000
     15 C24          0.8940    -1.2140    -2.9820 ca         1 M39      -0.041300
     16 C25          1.2680    -2.5170    -2.3260 c3         1 M39       0.043200
     17 C7           3.2870     0.0000    -1.1580 cd         1 M39       0.367800
     18 S11          4.1150     0.0000    -2.7130 ss         1 M39      -0.289300
     19 C12          5.8360     0.0000    -2.1520 c3         1 M39       0.154000
     20 C13          6.7540     0.0010    -3.3480 ca         1 M39      -0.064300
     21 C18          7.1750     1.1970    -3.8950 ca         1 M39      -0.116000
     22 C17          8.0180     1.1960    -4.9930 ca         1 M39       0.105900
     23 F26          8.4310     2.3670    -5.5300 f          1 M39      -0.127900
     24 C14          7.1790    -1.1970    -3.8920 ca         1 M39      -0.097000
     25 C15          8.0220    -1.1990    -4.9880 ca         1 M39      -0.074000
     26 C16          8.4400    -0.0030    -5.5410 ca         1 M39      -0.127000
     27 H1           0.6680    -0.0000     3.0140 h4         1 M39       0.156000
     28 H2           2.8900     0.0010     4.2780 hn         1 M39       0.150700
     29 H3           1.1550     2.1300    -2.5230 ha         1 M39       0.111000
     30 H4          -0.0550     2.1170    -4.6690 ha         1 M39       0.107000
     31 H5          -0.6620    -0.0220    -5.7300 ha         1 M39       0.103000
     32 H6          -0.0550    -2.1540    -4.6530 ha         1 M39       0.110000
     33 H7           0.6490    -2.6720    -1.4500 hc         1 M39       0.017033
     34 H8           1.1150    -3.3310    -3.0240 hc         1 M39       0.017033
     35 H9           2.3100    -2.4870    -2.0310 hc         1 M39       0.017033
     36 H10          6.0210     0.8850    -1.5550 h1         1 M39       0.060200
     37 H11          6.0220    -0.8840    -1.5540 h1         1 M39       0.060200
     38 H12          6.8560     2.1350    -3.4570 ha         1 M39       0.126000
     39 H13          6.8520    -2.1350    -3.4590 ha         1 M39       0.114000
     40 H14          8.3530    -2.1380    -5.4150 ha         1 M39       0.108000
     41 H15          9.1000    -0.0040    -6.4000 ha         1 M39       0.119000
@<TRIPOS>BOND
     1     1     2 2   
     2     2     3 1   
     3     2     9 1   
     4     3     4 2   
     5     3     7 1   
     6     4     5 1   
     7     4    27 1   
     8     5     6 1   
     9     5    28 1   
    10     6     7 2   
    11     7     8 1   
    12     8    17 2   
    13     9    10 1   
    14     9    17 1   
    15    10    11 ar  
    16    10    15 ar  
    17    11    12 ar  
    18    11    29 1   
    19    12    13 ar  
    20    12    30 1   
    21    13    14 ar  
    22    13    31 1   
    23    14    15 ar  
    24    14    32 1   
    25    15    16 1   
    26    16    33 1   
    27    16    34 1   
    28    16    35 1   
    29    17    18 1   
    30    18    19 1   
    31    19    20 1   
    32    19    36 1   
    33    19    37 1   
    34    20    21 ar  
    35    20    24 ar  
    36    21    22 ar  
    37    21    38 1   
    38    22    23 1   
    39    22    26 ar  
    40    24    25 ar  
    41    24    39 1   
    42    25    26 ar  
    43    25    40 1   
    44    26    41 1   
@<TRIPOS>SUBSTRUCTURE
     1 M39         1 TEMP              0 ****  ****    0 ROOT
