@<TRIPOS>MOLECULE
molecule
   29    29     1     0     0
SMALL
bcc


@<TRIPOS>ATOM
      1 N1           0.0000     0.0000     0.0000 nz         1 M3C      -0.805600
      2 C2           1.4680     0.0000     0.0000 c3         1 M3C       0.143500
      3 C10          1.9780     0.0000     1.4420 c3         1 M3C      -0.089400
      4 C11          1.4680     1.2470     2.1650 c3         1 M3C      -0.031300
      5 S12          2.0720     1.2460     3.8750 ss         1 M3C      -0.275200
      6 C13          1.3360     2.7920     4.4720 c3         1 M3C      -0.006000
      7 C3           1.9780    -1.2470    -0.7230 c3         1 M3C       0.347300
      8 O4           3.4070    -1.2460    -0.7220 oh         1 M3C      -0.597800
      9 O15          1.5040    -2.4140    -0.0500 oh         1 M3C      -0.597800
     10 C5           1.4760    -1.2450    -2.1430 cc         1 M3C       0.280700
     11 N6           1.6770    -0.3570    -3.0880 nd         1 M3C      -0.666000
     12 C7           1.1670    -0.5070    -4.2920 cd         1 M3C       0.340200
     13 C8           0.4090    -1.6050    -4.5390 cc         1 M3C      -0.080400
     14 S9           0.4770    -2.4150    -2.9480 ss         1 M3C      -0.211300
     15 HN11        -0.3340    -0.5620     0.7580 hn         1 M3C       0.459800
     16 HN12        -0.3340    -0.3750    -0.8660 hn         1 M3C       0.459800
     17 H2           1.8290     0.8850    -0.5100 hx         1 M3C       0.143700
     18 H101         3.0620     0.0010     1.4420 hc         1 M3C       0.111200
     19 H102         1.6190    -0.8850     1.9520 hc         1 M3C       0.111200
     20 H111         0.3850     1.2460     2.1650 h1         1 M3C       0.048200
     21 H112         1.8280     2.1320     1.6550 h1         1 M3C       0.048200
     22 H131         1.6600     3.6130     3.8430 h1         1 M3C       0.072033
     23 H132         0.2560     2.7150     4.4370 h1         1 M3C       0.072033
     24 H133         1.6530     2.9720     5.4920 h1         1 M3C       0.072033
     25 HO4          3.7220    -2.0020    -1.1900 ho         1 M3C       0.448500
     26 H15          2.0100    -3.1610    -0.3220 ho         1 M3C       0.448500
     27 H7           1.3420     0.2310    -5.0650 h4         1 M3C       0.069100
     28 H8          -0.0950    -1.9080    -5.4480 h4         1 M3C       0.224000
     29 H13         -0.3340     0.9370     0.1090 hn         1 M3C       0.459800
@<TRIPOS>BOND
     1     1     2 1
     2     1    15 1
     3     1    16 1
     4     2     3 1
     5     2     7 1
     6     2    17 1
     7     3     4 1
     8     3    18 1
     9     3    19 1
    10     4     5 1
    11     4    20 1
    12     4    21 1
    13     5     6 1
    14     6    22 1
    15     6    23 1
    16     6    24 1
    17     7     8 1
    18     7     9 1
    19     7    10 1
    20     8    25 1
    21     9    26 1
    22    10    11 2
    23    10    14 1
    24    11    12 1
    25    12    13 2
    26    12    27 1
    27    13    14 1
    28    13    28 1
    29    29     1 1
@<TRIPOS>SUBSTRUCTURE
     1 M3C         1 TEMP              0 ****  ****    0 ROOT
