@<TRIPOS>MOLECULE
M3C
   29    29     1     0     0
SMALL
bcc


@<TRIPOS>ATOM
      1 N1           0.0000     0.0000     0.0000 nz         1 M3C       0.062400
      2 C2           1.4680     0.0000     0.0000 c3         1 M3C      -0.065500
      3 C10          1.9780     0.0000     1.4420 c3         1 M3C      -0.018400
      4 C11          1.4680     1.2470     2.1650 c3         1 M3C       0.033700
      5 S12          2.0720     1.2460     3.8750 ss         1 M3C      -0.335200
      6 C13          1.3360     2.7920     4.4720 c3         1 M3C       0.122000
      7 C3           1.9780    -1.2470    -0.7230 c3         1 M3C       0.407300
      8 O4           3.4070    -1.2460    -0.7220 oh         1 M3C      -0.590300
      9 O15          1.5040    -2.4140    -0.0500 oh         1 M3C      -0.590300
     10 C5           1.4760    -1.2450    -2.1430 cc         1 M3C       0.231700
     11 N6           1.6770    -0.3570    -3.0880 nd         1 M3C      -0.511000
     12 C7           1.1670    -0.5070    -4.2920 cd         1 M3C       0.304200
     13 C8           0.4090    -1.6050    -4.5390 cc         1 M3C       0.024600
     14 S9           0.4770    -2.4150    -2.9480 ss         1 M3C      -0.302300
     15 HN11        -0.3340    -0.5620     0.7580 hn         1 M3C       0.231800
     16 HN12        -0.3340    -0.3750    -0.8660 hn         1 M3C       0.231800
     17 H2           1.8290     0.8850    -0.5100 hx         1 M3C       0.113700
     18 H101         3.0620     0.0010     1.4420 hc         1 M3C       0.078200
     19 H102         1.6190    -0.8850     1.9520 hc         1 M3C       0.078200
     20 H111         0.3850     1.2460     2.1650 h1         1 M3C       0.025200
     21 H112         1.8280     2.1320     1.6550 h1         1 M3C       0.025200
     22 H131         1.6600     3.6130     3.8430 h1         1 M3C       0.040367
     23 H132         0.2560     2.7150     4.4370 h1         1 M3C       0.040367
     24 H133         1.6530     2.9720     5.4920 h1         1 M3C       0.040367
     25 HO4          3.7220    -2.0020    -1.1900 ho         1 M3C       0.438000
     26 H15          2.0100    -3.1610    -0.3220 ho         1 M3C       0.438000
     27 H7           1.3420     0.2310    -5.0650 h4         1 M3C       0.023100
     28 H8          -0.0950    -1.9080    -5.4480 h4         1 M3C       0.190000
     29 H13         -0.3340     0.9370     0.1090 hn         1 M3C       0.231800
@<TRIPOS>BOND
     1     1     2 1   
     2     1    15 1   
     3     1    16 1   
     4     1    29 1   
     5     2     3 1   
     6     2     7 1   
     7     2    17 1   
     8     3     4 1   
     9     3    18 1   
    10     3    19 1   
    11     4     5 1   
    12     4    20 1   
    13     4    21 1   
    14     5     6 1   
    15     6    22 1   
    16     6    23 1   
    17     6    24 1   
    18     7     8 1   
    19     7     9 1   
    20     7    10 1   
    21     8    25 1   
    22     9    26 1   
    23    10    11 2   
    24    10    14 1   
    25    11    12 1   
    26    12    13 2   
    27    12    27 1   
    28    13    14 1   
    29    13    28 1   
@<TRIPOS>SUBSTRUCTURE
     1 M3C         1 TEMP              0 ****  ****    0 ROOT
