@<TRIPOS>MOLECULE
M3F
   29    31     1     0     0
SMALL
bcc


@<TRIPOS>ATOM
      1 CAA          0.0000     0.0000     0.0000 c3         1 M3F       0.022200
      2 OAB          4.8530     0.0290    -4.0040 o          1 M3F      -0.526500
      3 FAC         -1.9000     0.9430    -5.2500 f          1 M3F      -0.181300
      4 FAD         -2.9500    -0.5990    -3.9480 f          1 M3F      -0.181300
      5 FAE         -1.1600    -1.0410    -5.2180 f          1 M3F      -0.181300
      6 CAF          5.4010     0.0000     0.0000 ca         1 M3F      -0.138000
      7 CAG          4.2300     0.0000     0.7360 ca         1 M3F      -0.093000
      8 CAH          5.3280     0.0010    -1.3730 ca         1 M3F      -0.038000
      9 CAI          2.9930     0.0010     0.1110 ca         1 M3F      -0.127000
     10 CAJ         -0.7850     0.0030    -2.3150 ca         1 M3F      -0.254300
     11 NAK          0.5840     0.0030    -4.1950 nb         1 M3F      -0.581000
     12 NAL          2.8780     0.0020    -4.1170 ns         1 M3F      -0.249400
     13 CAM          0.3280     0.0010    -1.4710 ca         1 M3F       0.039700
     14 CAN         -0.6220     0.0030    -3.6820 ca         1 M3F       0.307600
     15 CAO          4.0530     0.0010    -3.4800 c          1 M3F       0.779100
     16 CAP          4.0870     0.0010    -2.0100 ca         1 M3F      -0.243600
     17 CAQ          1.6750     0.0020    -3.4380 ca         1 M3F       0.410200
     18 CAR          2.8740     0.0010    -1.2720 ca         1 M3F       0.061000
     19 CAS          1.6040     0.0020    -2.0250 ca         1 M3F      -0.163300
     20 CAT         -1.8260     0.0300    -4.5860 c3         1 M3F       0.538600
     21 HAA          0.0690     0.9740     0.4680 hc         1 M3F       0.007367
     22 HAAA        -1.0250    -0.1400     0.3230 hc         1 M3F       0.007367
     23 HAAB         0.3990    -0.4740     0.8880 hc         1 M3F       0.007367
     24 HAF          6.3320     0.1690     0.5270 ha         1 M3F       0.109000
     25 HAG          4.2350     0.0590     1.8170 ha         1 M3F       0.101000
     26 HAH          6.3590    -0.1810    -1.6510 ha         1 M3F       0.124000
     27 HAI          2.2850     0.1000     0.9240 ha         1 M3F       0.118000
     28 HAJ         -1.6670     0.0630    -1.6900 ha         1 M3F       0.137000
     29 HNAL         2.9730     0.4480    -5.0080 hn         1 M3F       0.189500
@<TRIPOS>BOND
     1     1    13 1   
     2     1    21 1   
     3     1    22 1   
     4     1    23 1   
     5     2    15 2   
     6     3    20 1   
     7     4    20 1   
     8     5    20 1   
     9     6     7 ar  
    10     6     8 ar  
    11     6    24 1   
    12     7     9 ar  
    13     7    25 1   
    14     8    16 ar  
    15     8    26 1   
    16     9    18 ar  
    17     9    27 1   
    18    10    13 ar  
    19    10    14 ar  
    20    10    28 1   
    21    11    14 ar  
    22    11    17 ar  
    23    12    15 1   
    24    12    17 1   
    25    12    29 1   
    26    13    19 ar  
    27    14    20 1   
    28    15    16 1   
    29    16    18 ar  
    30    17    19 ar  
    31    18    19 1   
@<TRIPOS>SUBSTRUCTURE
     1 M3F         1 TEMP              0 ****  ****    0 ROOT
