@<TRIPOS>MOLECULE
M3I
   13    13     1     0     0
SMALL
bcc


@<TRIPOS>ATOM
      1 CAA         0.0000    0.0210   -0.0610 c3        1 M3I     -0.141400
      2 NAB         4.9850    0.1730    0.5800 nh        1 M3I     -0.894500
      3 CAC         2.4700   -0.0190    0.8260 cc        1 M3I     -0.389600
      4 NAD         3.3690    0.2020   -1.2890 nd        1 M3I     -0.424300
      5 OAE         2.0530    0.1890   -1.3850 os        1 M3I     -0.122100
      6 CAF         3.7090    0.0920    0.0310 cc        1 M3I      0.517200
      7 CAG         1.4610    0.0500   -0.1080 cd        1 M3I      0.285000
      8 HAA        -0.4250   -0.2010   -1.0720 hc        1 M3I      0.065700
      9 HAAA       -0.3880    1.0160    0.2770 hc        1 M3I      0.065700
     10 HAAB       -0.3440   -0.7610    0.6600 hc        1 M3I      0.065700
     11 HNAB        5.7300    0.0550   -0.0740 hn        1 M3I      0.400300
     12 HNAA        5.0850   -0.3900    1.3970 hn        1 M3I      0.400300
     13 HAC         2.4100   -0.1160    1.9030 ha        1 M3I      0.173000
@<TRIPOS>BOND
     1    1    7 1
     2    1    8 1
     3    1    9 1
     4    1   10 1
     5    2    6 1
     6    2   11 1
     7    2   12 1
     8    3    6 1
     9    3    7 2
    10    3   13 1
    11    4    5 1
    12    4    6 2
    13    5    7 1
@<TRIPOS>SUBSTRUCTURE
     1 M3I         1 TEMP              0 ****  ****    0 ROOT
