@<TRIPOS>MOLECULE
M3K
   44    45     1     0     0
SMALL
bcc


@<TRIPOS>ATOM
      1 C01          0.0000     0.0000     0.0000 ca         1 M3K      -0.073400
      2 C02          1.3890     0.0000     0.0000 ca         1 M3K      -0.107000
      3 C03          2.0780     0.0000     1.1970 ca         1 M3K      -0.063000
      4 C04          1.3880    -0.0020     2.3960 ca         1 M3K       0.190900
      5 C05          0.0040    -0.0030     2.4010 ca         1 M3K      -0.082000
      6 C06         -0.6920    -0.0010     1.2060 ca         1 M3K       0.101900
      7 N07         -0.7010     0.0060    -1.2100 nu         1 M3K      -0.193000
      8 C08         -0.2910     0.8350    -2.2460 ca         1 M3K       0.155600
      9 C09         -0.9210     0.7620    -3.5010 ca         1 M3K      -0.402600
     10 C10         -0.4970     1.6070    -4.5380 ca         1 M3K       0.287100
     11 C11          0.5350     2.5020    -4.3180 ca         1 M3K      -0.293000
     12 C12          1.1500     2.5680    -3.0780 ca         1 M3K       0.269900
     13 C13          0.7370     1.7450    -2.0460 ca         1 M3K      -0.272000
     14 C14         -2.0160    -0.1930    -3.7240 c          1 M3K       0.390700
     15 N15         -1.7450    -1.4360    -4.1680 nz         1 M3K       0.191600
     16 O16         -3.1660     0.1390    -3.5110 o          1 M3K      -0.395100
     17 C18         -1.4030     2.2200    -8.0540 c3         1 M3K      -0.042400
     18 C19         -0.8850     3.1730    -9.1330 c3         1 M3K       0.190100
     19 C20         -1.7560     3.0470   -10.3860 c3         1 M3K       0.202400
     20 O21          0.4650     2.8360    -9.4580 oh         1 M3K      -0.590800
     21 O22         -1.3450     4.0170   -11.3500 oh         1 M3K      -0.589800
     22 I23          2.4400    -0.0030     4.2070 i          1 M3K      -0.192900
     23 C15         -0.6120     2.4340    -6.7630 c3         1 M3K       0.209400
     24 F24         -2.0430    -0.0010     1.2110 f          1 M3K      -0.117900
     25 F26          2.1570     3.4460    -2.8750 f          1 M3K      -0.104900
     26 O1          -1.0960     1.5450    -5.7540 os         1 M3K      -0.338900
     27 H02          1.9310     0.0010    -0.9380 ha         1 M3K       0.127000
     28 H07         -1.4960    -0.5900    -1.3310 hn         1 M3K       0.267800
     29 H03          3.1610     0.0000     1.1970 ha         1 M3K       0.132000
     30 H05         -0.5340    -0.0040     3.3410 ha         1 M3K       0.145000
     31 H13          1.2040     1.8250    -1.0720 ha         1 M3K       0.172000
     32 H11          0.8630     3.1550    -5.1190 ha         1 M3K       0.161000
     33 H151        -1.9240    -2.0970    -3.4380 hn         1 M3K       0.246800
     34 H152        -2.3250    -1.6440    -4.9560 hn         1 M3K       0.246800
     35 H181        -2.4530     2.4170    -7.8720 hc         1 M3K       0.030200
     36 H182        -1.2810     1.1960    -8.3870 hc         1 M3K       0.030200
     37 H19         -0.9250     4.1910    -8.7660 h1         1 M3K       0.013700
     38 HA1         -0.7340     3.4580    -6.4300 h1         1 M3K       0.022700
     39 HB2          0.4370     2.2360    -6.9450 h1         1 M3K       0.022700
     40 H201        -2.7930     3.2160   -10.1220 h1         1 M3K      -0.004300
     41 H202        -1.6470     2.0540   -10.8040 h1         1 M3K      -0.004300
     42 H21          0.9550     3.6240    -9.6240 ho         1 M3K       0.410000
     43 H22         -1.9380     4.0020   -12.0840 ho         1 M3K       0.403000
     44 H153        -0.7840    -1.4900    -4.4440 hn         1 M3K       0.246800
@<TRIPOS>BOND
     1     1     2 ar  
     2     1     6 ar  
     3     1     7 1   
     4     2     3 ar  
     5     2    27 1   
     6     3     4 ar  
     7     3    29 1   
     8     4     5 ar  
     9     4    22 1   
    10     5     6 ar  
    11     5    30 1   
    12     6    24 1   
    13     7     8 1   
    14     7    28 1   
    15     8     9 ar  
    16     8    13 ar  
    17     9    10 ar  
    18     9    14 1   
    19    10    11 ar  
    20    10    26 1   
    21    11    12 ar  
    22    11    32 1   
    23    12    13 ar  
    24    12    25 1   
    25    13    31 1   
    26    14    15 1   
    27    14    16 2   
    28    15    33 1   
    29    15    34 1   
    30    15    44 1   
    31    17    18 1   
    32    17    23 1   
    33    17    35 1   
    34    17    36 1   
    35    18    19 1   
    36    18    20 1   
    37    18    37 1   
    38    19    21 1   
    39    19    40 1   
    40    19    41 1   
    41    20    42 1   
    42    21    43 1   
    43    23    26 1   
    44    23    38 1   
    45    23    39 1   
@<TRIPOS>SUBSTRUCTURE
     1 M3K         1 TEMP              0 ****  ****    0 ROOT
