@<TRIPOS>MOLECULE
M3N
   33    34     1     0     0
SMALL
bcc


@<TRIPOS>ATOM
      1 C1          0.2100   -0.2820    0.1780 c3        1 M3N      0.236800
      2 C2          1.7590   -0.2100    0.2600 c3        1 M3N      0.093100
      3 O2          2.2080    0.7780   -0.6500 oh        1 M3N     -0.589800
      4 C3          2.2600    0.1010    1.6750 c3        1 M3N      0.071100
      5 O3          3.6470    0.3720    1.6800 oh        1 M3N     -0.590800
      6 C4          1.5020    1.2990    2.2730 c3        1 M3N      0.090100
      7 O4          1.8270    1.4790    3.6390 oh        1 M3N     -0.587800
      8 C5         -0.0090    1.0530    2.1890 c3        1 M3N      0.092100
      9 O5         -0.3860    0.8370    0.8240 os        1 M3N     -0.433600
     10 C6         -0.7930    2.2920    2.6370 c3        1 M3N      0.140400
     11 O6         -2.1730    2.0220    2.7270 oh        1 M3N     -0.589800
     12 C01        -1.7220   -3.2730    0.8710 cc        1 M3N      0.247600
     13 C02        -1.5430   -2.1050    0.1140 cd        1 M3N     -0.170600
     14 N03        -0.3520   -1.5510    0.6180 na        1 M3N      0.005400
     15 N04         0.1200   -2.3350    1.6230 nd        1 M3N     -0.172800
     16 N05        -0.6360   -3.3380    1.7870 nc        1 M3N     -0.338000
     17 O01        -3.6600   -3.9180   -0.2740 oh        1 M3N     -0.606800
     18 H1         -0.1050   -0.1390   -0.9060 h2        1 M3N      0.110700
     19 H2          2.2290   -1.1640   -0.1120 h1        1 M3N      0.118700
     20 H3          1.7470    1.6020   -0.4400 ho        1 M3N      0.412000
     21 H4          2.1460   -0.7980    2.3470 h1        1 M3N      0.123700
     22 H5          3.8410    0.9430    0.9220 ho        1 M3N      0.416000
     23 H6          1.7730    2.2370    1.7080 h1        1 M3N      0.038700
     24 H7          2.7800    1.3270    3.7200 ho        1 M3N      0.426000
     25 H8         -0.2980    0.1690    2.8180 h1        1 M3N      0.092700
     26 H9         -0.4690    2.5660    3.6770 h1        1 M3N      0.065200
     27 H10        -0.6030    3.1420    1.9300 h1        1 M3N      0.065200
     28 H11        -2.4670    1.7450    1.8510 ho        1 M3N      0.408000
     29 H12        -2.1300   -1.6650   -0.6900 h4        1 M3N      0.206000
     30 H13        -2.3570   -5.3050    0.5930 h1        1 M3N      0.046700
     31 H14        -3.3700   -4.3180    1.7600 h1        1 M3N      0.046700
     32 H15        -4.3670   -4.5730   -0.2840 ho        1 M3N      0.410000
     33 C03        -2.7950   -4.2880    0.7930 c3        1 M3N      0.118100
@<TRIPOS>BOND
     1    1    2 1   
     2    1    9 1   
     3    1   14 1   
     4    1   18 1   
     5    2    3 1   
     6    2    4 1   
     7    2   19 1   
     8    3   20 1   
     9    4    5 1   
    10    4    6 1   
    11    4   21 1   
    12    5   22 1   
    13    6    7 1   
    14    6    8 1   
    15    6   23 1   
    16    7   24 1   
    17    8    9 1   
    18    8   10 1   
    19    8   25 1   
    20   10   11 1   
    21   10   26 1   
    22   10   27 1   
    23   11   28 1   
    24   12   13 2   
    25   12   16 1   
    26   12   33 1   
    27   13   14 1   
    28   13   29 1   
    29   14   15 1   
    30   15   16 2   
    31   17   32 1   
    32   17   33 1   
    33   30   33 1   
    34   31   33 1   
@<TRIPOS>SUBSTRUCTURE
     1 M3N         1 TEMP              0 ****  ****    0 ROOT
