@<TRIPOS>MOLECULE
molecule
   33    34     1     0     0
SMALL
bcc


@<TRIPOS>ATOM
      1 C1           0.0000     0.0000     0.0000 c3         1 M3N       0.251800
      2 C2           1.5310     0.0000     0.0000 c3         1 M3N       0.095100
      3 O2           2.0090     1.1670    -0.6720 oh         1 M3N      -0.570800
      4 C3           2.0340     0.0000     1.4470 c3         1 M3N       0.119100
      5 O3           3.4610     0.0730     1.4570 oh         1 M3N      -0.594800
      6 C4           1.4530     1.2150     2.1780 c3         1 M3N       0.122100
      7 O4           1.8580     1.1860     3.5470 oh         1 M3N      -0.597800
      8 C5          -0.0740     1.1690     2.0930 c3         1 M3N       0.128100
      9 O5          -0.4750     1.1390     0.7220 os         1 M3N      -0.375600
     10 C6          -0.6600     2.4100     2.7690 c3         1 M3N       0.152400
     11 O6          -2.0860     2.3110     2.7940 oh         1 M3N      -0.601800
     12 C01         -1.5240    -3.0840     1.0230 cc         1 M3N       0.269600
     13 C02         -1.3450    -2.1170     0.0940 cd         1 M3N      -0.241600
     14 N03         -0.4890    -1.2220     0.6410 na         1 M3N       0.088400
     15 N04         -0.1800    -1.6310     1.8220 nd         1 M3N      -0.219800
     16 N05         -0.7800    -2.7390     2.0800 nc         1 M3N      -0.354000
     17 O01         -3.0250    -4.3110    -0.3880 oh         1 M3N      -0.618800
     18 H1          -0.3590     0.0460    -1.0210 h2         1 M3N       0.108700
     19 H2           1.8910    -0.8880    -0.5060 h1         1 M3N       0.050700
     20 H3           2.2700     0.9390    -1.5490 ho         1 M3N       0.406000
     21 H4           1.7090    -0.9080     1.9410 h1         1 M3N       0.095700
     22 H5           3.8150    -0.7440     1.7660 ho         1 M3N       0.407000
     23 H6           1.8120     2.1230     1.7090 h1         1 M3N       0.066700
     24 H7           2.5240     1.8390     3.6920 ho         1 M3N       0.411000
     25 H8          -0.4350     0.2770     2.5920 h1         1 M3N       0.096700
     26 H9          -0.2850     2.4810     3.7830 h1         1 M3N       0.037700
     27 H10         -0.3690     3.2940     2.2140 h1         1 M3N       0.037700
     28 H11         -2.4410     3.0240     3.2990 ho         1 M3N       0.403000
     29 H12         -1.7950    -2.0690    -0.8900 h4         1 M3N       0.198000
     30 H13         -1.7870    -5.1970     1.0020 h1         1 M3N       0.042700
     31 H14         -3.1530    -4.2930     1.6690 h1         1 M3N       0.042700
     32 H15         -3.5690    -5.0760    -0.4690 ho         1 M3N       0.412000
     33 C03         -2.3950    -4.3070     0.8950 c3         1 M3N       0.132100
@<TRIPOS>BOND
     1    10    11 1
     2    10     8 1
     3     7     6 1
     4     8     6 1
     5     8     9 1
     6     6     4 1
     7     9     1 1
     8    17    33 1
     9     4     5 1
    10     4     2 1
    11    13    14 1
    12    13    12 2
    13    33    12 1
    14     1     2 1
    15     1    14 1
    16     2     3 1
    17    14    15 1
    18    12    16 1
    19    15    16 2
    20     1    18 1
    21     2    19 1
    22     3    20 1
    23     4    21 1
    24     5    22 1
    25     6    23 1
    26     7    24 1
    27     8    25 1
    28    10    26 1
    29    10    27 1
    30    11    28 1
    31    13    29 1
    32    33    30 1
    33    33    31 1
    34    17    32 1
@<TRIPOS>SUBSTRUCTURE
     1 M3N         1 TEMP              0 ****  ****    0 ROOT
