@<TRIPOS>MOLECULE
molecule
   18    17     1     0     0
SMALL
bcc


@<TRIPOS>ATOM
      1 C1           0.0000     0.0000     0.0000 ce         1 M3P       0.233900
      2 C2           1.4760     0.0000     0.0000 c          1 M3P       0.820800
      3 C3           0.0480    -0.2480     4.7890 c          1 M3P       0.576300
      4 C4          -0.6450    -0.0650     3.5750 ce         1 M3P      -0.434200
      5 C5           0.0140    -0.1830     2.3920 cf         1 M3P       0.064000
      6 C6          -0.6800     0.0000     1.1760 cf         1 M3P      -0.558000
      7 C           -0.6820    -0.1180     6.1010 c3         1 M3P      -0.190100
      8 O1          -0.6770     0.0040    -1.1730 oh         1 M3P      -0.494100
      9 O2           2.1500    -0.1380    -1.1590 o          1 M3P      -0.772800
     10 O3           2.0840     0.1260     1.0440 o          1 M3P      -0.772800
     11 O4           1.2340    -0.5110     4.7780 o          1 M3P      -0.593100
     12 H4          -1.7030     0.1680     3.5850 ha         1 M3P       0.123000
     13 H5           1.0720    -0.4160     2.3830 ha         1 M3P       0.197000
     14 H6          -0.2150     0.8410     1.6760 ha         1 M3P       0.248000
     15 H           -1.4620    -0.8680     6.1550 hc         1 M3P       0.040700
     16 HA           0.0150    -0.2620     6.9180 hc         1 M3P       0.040700
     17 HB          -1.1240     0.8680     6.1720 hc         1 M3P       0.040700
     18 HO1         -1.0670    -0.8430    -1.3150 ho         1 M3P       0.431000
@<TRIPOS>BOND
     1     1     2 1
     2     1     6 2
     3     1     8 1
     4     2     9 1
     5     2    10 1
     6     3     4 1
     7     3     7 1
     8     3    11 2
     9     4     5 2
    10     5     6 1
    11     4    12 1
    12     5    13 1
    13     6    14 1
    14     7    15 1
    15     7    16 1
    16     7    17 1
    17     8    18 1
@<TRIPOS>SUBSTRUCTURE
     1 M3P         1 TEMP              0 ****  ****    0 ROOT
