@<TRIPOS>MOLECULE
M3P
   18    17     1     0     0
SMALL
bcc


@<TRIPOS>ATOM
      1 C1          0.3160   -0.4130    0.2560 ce        1 M3P      0.089900
      2 C2          1.2630    0.5750   -0.4320 c         1 M3P      0.884800
      3 C3         -0.9040   -0.4210    4.5410 c         1 M3P      0.580300
      4 C4         -0.0150    0.4890    3.8490 ce        1 M3P     -0.385200
      5 C5          0.3420    0.4710    2.5420 cf        1 M3P      0.058000
      6 C6         -0.0910   -0.4650    1.5550 cf        1 M3P     -0.292000
      7 C          -1.0870   -0.1120    6.0050 c3        1 M3P     -0.197100
      8 O1         -0.1840   -1.3800   -0.5740 oh        1 M3P     -0.531100
      9 O2          1.4410    0.3510   -1.6660 o         1 M3P     -0.809800
     10 O3          1.7920    1.5120    0.2140 o         1 M3P     -0.809800
     11 O4         -1.5010   -1.3920    4.0440 o         1 M3P     -0.589100
     12 H4          0.4080    1.2830    4.4870 ha        1 M3P      0.107000
     13 H5          1.0430    1.2580    2.1810 ha        1 M3P      0.168000
     14 H6         -0.7860   -1.2600    1.8750 ha        1 M3P      0.147000
     15 H          -1.7800   -0.8460    6.4810 hc        1 M3P      0.043033
     16 HA         -1.5070    0.9150    6.1220 hc        1 M3P      0.043033
     17 HB         -0.0990   -0.1560    6.5230 hc        1 M3P      0.043033
     18 HO1         0.1880   -1.2230   -1.4660 ho        1 M3P      0.450000
@<TRIPOS>BOND
     1    1    2 1   
     2    1    6 2   
     3    1    8 1   
     4    2    9 1   
     5    2   10 1   
     6    3    4 1   
     7    3    7 1   
     8    3   11 2   
     9    4    5 2   
    10    4   12 1   
    11    5    6 1   
    12    5   13 1   
    13    6   14 1   
    14    7   15 1   
    15    7   16 1   
    16    7   17 1   
    17    8   18 1   
@<TRIPOS>SUBSTRUCTURE
     1 M3P         1 TEMP              0 ****  ****    0 ROOT
