@<TRIPOS>MOLECULE
molecule
   23    23     1     0     0
SMALL
bcc


@<TRIPOS>ATOM
      1 O12          0.0000     0.0000     0.0000 o          1 M3S      -0.557000
      2 C11          1.2080     0.0000     0.0000 c          1 M3S       0.658100
      3 O1           1.8810     0.0000     1.1620 os         1 M3S      -0.310200
      4 C2           1.1420     0.0000     2.3010 ca         1 M3S       0.124100
      5 C7           0.7630    -1.1980     2.8860 ca         1 M3S      -0.114300
      6 C1           1.1710    -2.5050     2.2560 c3         1 M3S      -0.041800
      7 C6           0.0120    -1.1970     4.0440 ca         1 M3S      -0.144000
      8 C5          -0.3690    -0.0010     4.6310 ca         1 M3S      -0.160000
      9 C4          -0.0010     1.2000     4.0640 ca         1 M3S      -0.088000
     10 C3           0.7650     1.2130     2.8950 ca         1 M3S      -0.094600
     11 C8           1.1630     2.4940     2.2830 c          1 M3S       0.886200
     12 O10          0.7890     3.6570     2.8500 o          1 M3S      -0.834300
     13 O9           1.8280     2.5010     1.2660 o          1 M3S      -0.834300
     14 C13          1.9610    -0.0070    -1.3060 c3         1 M3S      -0.131100
     15 H1           2.1970    -2.4380     1.9170 hc         1 M3S       0.032700
     16 H1A          0.5250    -2.7160     1.4120 hc         1 M3S       0.032700
     17 H1B          1.0820    -3.3010     2.9860 hc         1 M3S       0.032700
     18 H6          -0.2820    -2.1360     4.4970 ha         1 M3S       0.106000
     19 H5          -0.9600    -0.0100     5.5380 ha         1 M3S       0.106000
     20 H4          -0.2980     2.1330     4.5280 ha         1 M3S       0.157000
     21 H13          1.6700     0.8530    -1.8960 hc         1 M3S       0.057700
     22 H13A         3.0260     0.0340    -1.1090 hc         1 M3S       0.057700
     23 H13B         1.7300    -0.9140    -1.8520 hc         1 M3S       0.057700
@<TRIPOS>BOND
     1     1     2 2
     2     2     3 1
     3     2    14 1
     4     4     3 1
     5    10     4 ar
     6     4     5 ar
     7     7     5 ar
     8     5     6 1
     9     6    15 1
    10     6    16 1
    11     6    17 1
    12     8     7 ar
    13     7    18 1
    14     9     8 ar
    15     8    19 1
    16     9    10 ar
    17     9    20 1
    18    11    10 1
    19    13    11 1
    20    11    12 1
    21    14    21 1
    22    14    22 1
    23    14    23 1
@<TRIPOS>SUBSTRUCTURE
     1 M3S         1 TEMP              0 ****  ****    0 ROOT
