@<TRIPOS>MOLECULE
M3S
   23    23     1     0     0
SMALL
bcc


@<TRIPOS>ATOM
      1 O12        -0.0660   -0.2040   -0.2640 o         1 M3S     -0.561000
      2 C11         1.1420   -0.0070   -0.1400 c         1 M3S      0.709100
      3 O1          1.7460   -0.3140    1.0690 os        1 M3S     -0.387200
      4 C2          1.0020   -0.1680    2.2380 ca        1 M3S      0.150100
      5 C7          0.7300   -1.3320    2.9830 ca        1 M3S     -0.114300
      6 C1          1.1040   -2.6660    2.4630 c3        1 M3S     -0.032800
      7 C6          0.1080   -1.1960    4.2270 ca        1 M3S     -0.142000
      8 C5         -0.2370    0.0640    4.7120 ca        1 M3S     -0.169000
      9 C4          0.0340    1.2040    3.9590 ca        1 M3S     -0.096000
     10 C3          0.6540    1.1080    2.7090 ca        1 M3S     -0.134600
     11 C8          0.9270    2.3710    1.9120 c         1 M3S      0.922200
     12 O10         0.8930    3.4770    2.5170 o         1 M3S     -0.830800
     13 O9          1.1730    2.2540    0.6740 o         1 M3S     -0.830800
     14 C13         2.1370    0.3770   -1.1800 c3        1 M3S     -0.147100
     15 H1          2.1990   -2.8430    2.6100 hc        1 M3S      0.031700
     16 H1A         0.8900   -2.7240    1.3660 hc        1 M3S      0.031700
     17 H1B         0.5400   -3.4780    2.9840 hc        1 M3S      0.031700
     18 H6         -0.1120   -2.0940    4.8220 ha        1 M3S      0.105000
     19 H5         -0.7260    0.1560    5.6920 ha        1 M3S      0.106000
     20 H4         -0.2230    2.2090    4.3300 ha        1 M3S      0.152000
     21 H13         1.7680    0.0640   -2.1840 hc        1 M3S      0.068367
     22 H13A        2.2420    1.4930   -1.1410 hc        1 M3S      0.068367
     23 H13B        3.1280   -0.0910   -0.9720 hc        1 M3S      0.068367
@<TRIPOS>BOND
     1    1    2 2   
     2    2    3 1   
     3    2   14 1   
     4    3    4 1   
     5    4    5 ar  
     6    4   10 ar  
     7    5    6 1   
     8    5    7 ar  
     9    6   15 1   
    10    6   16 1   
    11    6   17 1   
    12    7    8 ar  
    13    7   18 1   
    14    8    9 ar  
    15    8   19 1   
    16    9   10 ar  
    17    9   20 1   
    18   10   11 1   
    19   11   12 1   
    20   11   13 1   
    21   14   21 1   
    22   14   22 1   
    23   14   23 1   
@<TRIPOS>SUBSTRUCTURE
     1 M3S         1 TEMP              0 ****  ****    0 ROOT
