@<TRIPOS>MOLECULE
molecule
   16    16     1     0     0
SMALL
bcc


@<TRIPOS>ATOM
      1 C7           0.0000     0.0000     0.0000 c3         1 M3T      -0.047800
      2 C3           1.5070     0.0000     0.0000 ca         1 M3T      -0.094300
      3 C2           2.1960     0.0000     1.1960 ca         1 M3T      -0.086000
      4 C1           3.5850    -0.0010     1.1950 ca         1 M3T       0.031900
      5 S1           4.4700    -0.0020     2.7200 sh         1 M3T      -0.369700
      6 C6           4.2760    -0.0000    -0.0100 ca         1 M3T      -0.090000
      7 C5           3.5800    -0.0000    -1.2030 ca         1 M3T      -0.137000
      8 C4           2.1980    -0.0050    -1.1980 ca         1 M3T      -0.105000
      9 H1          -0.3610     0.7300     0.7150 hc         1 M3T       0.045033
     10 H2          -0.3610     0.2540    -0.9890 hc         1 M3T       0.045033
     11 H3          -0.3610    -0.9840     0.2750 hc         1 M3T       0.045033
     12 H4           1.6550    -0.0510     2.1330 ha         1 M3T       0.145000
     13 H5           4.6930     1.2490     3.1030 hs         1 M3T       0.206800
     14 H6           5.3600     0.0010    -0.0140 ha         1 M3T       0.144000
     15 H7           4.1180    -0.0020    -2.1430 ha         1 M3T       0.134000
     16 H8           1.6540    -0.0050    -2.1360 ha         1 M3T       0.133000
@<TRIPOS>BOND
     1     1     2 1
     2     2     3 ar
     3     2     8 ar
     4     3     4 ar
     5     8     7 ar
     6     4     5 1
     7     4     6 ar
     8     7     6 ar
     9     1     9 1
    10     1    10 1
    11     1    11 1
    12     3    12 1
    13     5    13 1
    14     6    14 1
    15     7    15 1
    16     8    16 1
@<TRIPOS>SUBSTRUCTURE
     1 M3T         1 TEMP              0 ****  ****    0 ROOT
