@<TRIPOS>MOLECULE
M3T
   16    16     1     0     0
SMALL
bcc


@<TRIPOS>ATOM
      1 C7         -0.0250    0.1280   -0.0200 c3        1 M3T     -0.055800
      2 C3          1.4500   -0.0040    0.0200 ca        1 M3T     -0.060300
      3 C2          2.1190   -0.0710    1.2440 ca        1 M3T     -0.120000
      4 C1          3.5150   -0.1820    1.2870 ca        1 M3T      0.020900
      5 S1          4.2240   -0.2560    2.8270 sh        1 M3T     -0.256700
      6 C6          4.2390   -0.2270    0.0920 ca        1 M3T     -0.150000
      7 C5          3.5740   -0.1610   -1.1310 ca        1 M3T     -0.109000
      8 C4          2.1870   -0.0510   -1.1710 ca        1 M3T     -0.138000
      9 H1         -0.4500   -0.4180   -0.8980 hc        1 M3T      0.046367
     10 H2         -0.4920   -0.2800    0.9100 hc        1 M3T      0.046367
     11 H3         -0.3070    1.2080   -0.1100 hc        1 M3T      0.046367
     12 H4          1.5480   -0.0380    2.1850 ha        1 M3T      0.143000
     13 H5          5.4970   -0.3550    2.4890 hs        1 M3T      0.190800
     14 H6          5.3360   -0.3140    0.1120 ha        1 M3T      0.129000
     15 H7          4.1500   -0.1980   -2.0670 ha        1 M3T      0.133000
     16 H8          1.6650   -0.0010   -2.1380 ha        1 M3T      0.133000
@<TRIPOS>BOND
     1    1    2 1   
     2    1    9 1   
     3    1   10 1   
     4    1   11 1   
     5    2    3 ar  
     6    2    8 ar  
     7    3    4 ar  
     8    3   12 1   
     9    4    5 1   
    10    4    6 ar  
    11    5   13 1   
    12    6    7 ar  
    13    6   14 1   
    14    7    8 ar  
    15    7   15 1   
    16    8   16 1   
@<TRIPOS>SUBSTRUCTURE
     1 M3T         1 TEMP              0 ****  ****    0 ROOT
