@<TRIPOS>MOLECULE
M3W
   33    35     1     0     0
SMALL
bcc


@<TRIPOS>ATOM
      1 CAD          0.0000     0.0000     0.0000 ca         1 M3W      -0.064500
      2 CAC          1.3800     0.0000     0.0000 ca         1 M3W      -0.106500
      3 CAB          2.0760     0.0000     1.1950 ca         1 M3W      -0.067300
      4 CAA          3.5820    -0.0000     1.1870 c3         1 M3W       0.060200
      5 CAG          1.3940     0.0010     2.3990 ca         1 M3W      -0.106500
      6 CAF          0.0140     0.0020     2.4140 ca         1 M3W      -0.064500
      7 CAE         -0.6940     0.0000     1.2120 ca         1 M3W      -0.166900
      8 CAH         -2.1720     0.0010     1.2210 cc         1 M3W       0.359500
      9 NAI         -2.8010     0.0000     0.0740 nd         1 M3W      -0.537100
     10 CAJ         -4.1480     0.0000     0.0060 ca         1 M3W       0.155400
     11 CAO         -4.8190     0.0000    -1.2210 ca         1 M3W      -0.083300
     12 CAP         -4.0370    -0.0010    -2.5090 c3         1 M3W       0.072200
     13 CAN         -6.1850     0.0000    -1.2480 ca         1 M3W      -0.068000
     14 CAM         -6.9230     0.0010    -0.0720 ca         1 M3W      -0.124000
     15 CAL         -6.2910     0.0010     1.1520 ca         1 M3W      -0.024000
     16 CAK         -4.8980     0.0000     1.2050 ca         1 M3W      -0.213600
     17 CAQ         -4.1690     0.0010     2.4810 c          1 M3W       0.621100
     18 OAR         -4.7590    -0.0000     3.5450 o          1 M3W      -0.667500
     19 NAS         -2.8170    -0.0040     2.4270 ns         1 M3W      -0.017400
     20 HAD         -0.5430    -0.0010    -0.9370 ha         1 M3W       0.115500
     21 HAC          1.9200    -0.0000    -0.9390 ha         1 M3W       0.110500
     22 HAA1         3.9470     0.7350     1.8940 hc         1 M3W       0.010367
     23 HAA2         3.9380     0.2470     0.1940 hc         1 M3W       0.010367
     24 HAA3         3.9450    -0.9820     1.4670 hc         1 M3W       0.010367
     25 HAG          1.9450     0.0020     3.3320 ha         1 M3W       0.110500
     26 HAF         -0.5180     0.0020     3.3580 ha         1 M3W       0.115500
     27 HAS         -2.2850    -0.0110     3.2750 hn         1 M3W       0.190500
     28 HAP1        -3.4100     0.8820    -2.5520 hc         1 M3W       0.010367
     29 HAP2        -3.4150    -0.8870    -2.5540 hc         1 M3W       0.010367
     30 HAP3        -4.7220     0.0020    -3.3480 hc         1 M3W       0.010367
     31 HAN         -6.7000     0.0000    -2.2010 ha         1 M3W       0.106000
     32 HAM         -8.0050     0.0010    -0.1180 ha         1 M3W       0.107000
     33 HAL         -6.8720     0.0020     2.0670 ha         1 M3W       0.124000
@<TRIPOS>BOND
     1     1     2 ar  
     2     1     7 ar  
     3     1    20 1   
     4     2     3 ar  
     5     2    21 1   
     6     3     4 1   
     7     3     5 ar  
     8     4    22 1   
     9     4    23 1   
    10     4    24 1   
    11     5     6 ar  
    12     5    25 1   
    13     6     7 ar  
    14     6    26 1   
    15     7     8 1   
    16     8     9 2   
    17     8    19 1   
    18     9    10 1   
    19    10    11 ar  
    20    10    16 ar  
    21    11    12 1   
    22    11    13 ar  
    23    12    28 1   
    24    12    29 1   
    25    12    30 1   
    26    13    14 ar  
    27    13    31 1   
    28    14    15 ar  
    29    14    32 1   
    30    15    16 ar  
    31    15    33 1   
    32    16    17 1   
    33    17    18 2   
    34    17    19 1   
    35    19    27 1   
@<TRIPOS>SUBSTRUCTURE
     1 M3W         1 TEMP              0 ****  ****    0 ROOT
