@<TRIPOS>MOLECULE
M40
   70    72     1     0     0
SMALL
bcc


@<TRIPOS>ATOM
      1 O01          0.0000     0.0000     0.0000 o          1 M40      -0.681000
      2 C02          1.2140     0.0000     0.0000 c          1 M40       0.665100
      3 O03          1.8890     0.0000     1.1650 os         1 M40      -0.424900
      4 C04          1.0990     0.0000     2.3840 c3         1 M40       0.296700
      5 C05          2.0170    -0.0010     3.5780 ca         1 M40      -0.086300
      6 C06          2.4390     1.1970     4.1260 ca         1 M40      -0.075000
      7 C07          3.2830     1.1970     5.2220 ca         1 M40      -0.121000
      8 C08          3.7040    -0.0010     5.7690 ca         1 M40      -0.102000
      9 C09          3.2830    -1.1980     5.2210 ca         1 M40      -0.121000
     10 C10          2.4350    -1.1970     4.1280 ca         1 M40      -0.075000
     11 N11          1.8880    -0.0050    -1.1680 ns         1 M40      -0.122900
     12 C12          1.1550    -0.0110    -2.4360 c3         1 M40      -0.058300
     13 C13          0.7900     1.4240    -2.8210 c3         1 M40      -0.056400
     14 C14         -0.1860     1.9960    -1.7910 c3         1 M40      -0.061700
     15 C15         -0.4540     3.4690    -2.1070 c3         1 M40      -0.028900
     16 C16         -1.4310     4.0420    -1.0760 c3         1 M40      -0.021400
     17 C17         -2.7450     3.2610    -1.1320 c3         1 M40      -0.026400
     18 C18         -2.4780     1.7880    -0.8180 c3         1 M40      -0.021400
     19 C19         -1.5010     1.2160    -1.8470 c3         1 M40      -0.028900
     20 C20          2.0180    -0.6160    -3.5130 c          1 M40       0.604100
     21 N21          1.5480    -0.7270    -4.7710 ns         1 M40      -0.119900
     22 C22          2.3870    -1.3150    -5.8190 c3         1 M40       0.048700
     23 C23          1.4960    -1.8920    -6.9210 c3         1 M40      -0.073400
     24 C24          0.7280    -3.0980    -6.3770 c3         1 M40      -0.130700
     25 C25         -0.1570    -3.7190    -7.4830 c3         1 M40      -0.032400
     26 C26         -1.5080    -3.0090    -7.2410 c3         1 M40       0.040000
     27 N27         -1.5000    -2.6280    -5.8230 ns         1 M40      -0.202900
     28 C28         -0.2570    -2.6630    -5.3140 c          1 M40       0.629500
     29 O29          0.0340    -2.3870    -4.1700 o          1 M40      -0.686500
     30 O32          3.1350    -1.0050    -3.2470 o          1 M40      -0.728100
     31 H1           0.4730    -0.8840     2.4090 h1         1 M40       0.011200
     32 H3           2.1060     2.1350     3.6990 ha         1 M40       0.109500
     33 H10          1.6870     2.0300    -2.8440 hc         1 M40       0.061700
     34 H11          0.3260     1.4280    -3.8000 hc         1 M40       0.061700
     35 H12          0.2390     1.9130    -0.7990 hc         1 M40       0.038700
     36 H13          0.4780     4.0210    -2.0650 hc         1 M40       0.024950
     37 H14         -0.8850     3.5530    -3.0970 hc         1 M40       0.024950
     38 H15         -1.0020     3.9540    -0.0850 hc         1 M40       0.004700
     39 H16         -1.6220     5.0840    -1.3020 hc         1 M40       0.004700
     40 H17         -3.1720     3.3450    -2.1240 hc         1 M40       0.001700
     41 H18         -3.4350     3.6650    -0.4010 hc         1 M40       0.001700
     42 H19         -2.0470     1.7040     0.1730 hc         1 M40       0.004700
     43 H20         -3.4090     1.2360    -0.8600 hc         1 M40       0.004700
     44 H21         -1.3110     0.1740    -1.6220 hc         1 M40       0.024950
     45 H22         -1.9300     1.3050    -2.8380 hc         1 M40       0.024950
     46 H23          0.6350    -0.3820    -4.9960 hn         1 M40       0.217500
     47 H24          2.9930    -2.1060    -5.3940 h1         1 M40       0.038700
     48 H25          0.7950    -1.1350    -7.2510 hc         1 M40       0.071200
     49 H26          2.1120    -2.2030    -7.7560 hc         1 M40       0.071200
     50 H27          1.4080    -3.8400    -5.9790 hc         1 M40       0.045700
     51 H28          0.2320    -3.4820    -8.4660 hc         1 M40       0.023700
     52 H29         -0.2540    -4.7890    -7.3440 hc         1 M40       0.023700
     53 H30         -2.3280    -3.6880    -7.4410 h1         1 M40       0.015200
     54 H31         -1.5830    -2.1270    -7.8640 h1         1 M40       0.015200
     55 H32         -2.3160    -2.3730    -5.3030 hn         1 M40       0.186500
     56 H35          4.9110    -0.4430    -7.4950 ho         1 M40       0.380000
     57 S1           2.2870     1.1560    -6.9870 s6         1 M40       0.965800
     58 O2           3.1070     2.2820    -7.2690 o          1 M40      -0.658200
     59 O3           1.4820     1.5740    -5.7650 o          1 M40      -0.658200
     60 O4           1.3080     0.7110    -7.9150 o          1 M40      -0.658200
     61 C30          3.2970    -0.2360    -6.4090 c3         1 M40       0.155900
     62 H4           0.4740     0.8850     2.4090 h1         1 M40       0.011200
     63 H2           3.6040     2.1350     5.6590 ha         1 M40       0.099000
     64 H5           4.3530    -0.0010     6.6370 ha         1 M40       0.095000
     65 H6           3.6130    -2.1360     5.6500 ha         1 M40       0.099000
     66 H7           2.1540    -2.2290     3.9550 ha         1 M40       0.109500
     67 H8           2.8890    -0.0010    -1.1690 hn         1 M40       0.192500
     68 H9           0.2500    -0.5970    -2.3270 h1         1 M40       0.080700
     69 H34          3.9870     0.1100    -5.6490 h2         1 M40       0.049700
     70 O31          4.0310    -0.7810    -7.5070 oh         1 M40      -0.575800
@<TRIPOS>BOND
     1     1     2 2   
     2     2     3 1   
     3     2    11 1   
     4     3     4 1   
     5     4     5 1   
     6     4    31 1   
     7     4    62 1   
     8     5     6 ar  
     9     5    10 ar  
    10     6     7 ar  
    11     6    32 1   
    12     7     8 ar  
    13     7    63 1   
    14     8     9 ar  
    15     8    64 1   
    16     9    10 ar  
    17     9    65 1   
    18    10    66 1   
    19    11    12 1   
    20    11    67 1   
    21    12    13 1   
    22    12    20 1   
    23    12    68 1   
    24    13    14 1   
    25    13    33 1   
    26    13    34 1   
    27    14    15 1   
    28    14    19 1   
    29    14    35 1   
    30    15    16 1   
    31    15    36 1   
    32    15    37 1   
    33    16    17 1   
    34    16    38 1   
    35    16    39 1   
    36    17    18 1   
    37    17    40 1   
    38    17    41 1   
    39    18    19 1   
    40    18    42 1   
    41    18    43 1   
    42    19    44 1   
    43    19    45 1   
    44    20    21 1   
    45    20    30 2   
    46    21    22 1   
    47    21    46 1   
    48    22    23 1   
    49    22    47 1   
    50    22    61 1   
    51    23    24 1   
    52    23    48 1   
    53    23    49 1   
    54    24    25 1   
    55    24    28 1   
    56    24    50 1   
    57    25    26 1   
    58    25    51 1   
    59    25    52 1   
    60    26    27 1   
    61    26    53 1   
    62    26    54 1   
    63    27    28 1   
    64    27    55 1   
    65    28    29 2   
    66    56    70 1   
    67    57    58 1   
    68    57    59 1   
    69    57    60 1   
    70    57    61 1   
    71    61    69 1   
    72    61    70 1   
@<TRIPOS>SUBSTRUCTURE
     1 M40         1 TEMP              0 ****  ****    0 ROOT
