@<TRIPOS>MOLECULE
molecule
   70    72     1     0     0
SMALL
bcc


@<TRIPOS>ATOM
      1 O01          0.0000     0.0000     0.0000 o          1 M40      -0.629000
      2 C02          1.2140     0.0000     0.0000 c          1 M40       0.744100
      3 O03          1.8890     0.0000     1.1650 os         1 M40      -0.440900
      4 C04          1.0990     0.0000     2.3840 c3         1 M40       0.215700
      5 C05          2.0170    -0.0010     3.5780 ca         1 M40      -0.074300
      6 C06          2.4390     1.1970     4.1260 ca         1 M40      -0.102000
      7 C07          3.2830     1.1970     5.2220 ca         1 M40      -0.144500
      8 C08          3.7040    -0.0010     5.7690 ca         1 M40      -0.127000
      9 C09          3.2830    -1.1980     5.2210 ca         1 M40      -0.144500
     10 C10          2.4350    -1.1970     4.1280 ca         1 M40      -0.102000
     11 N11          1.8880    -0.0050    -1.1680 ns         1 M40      -0.541900
     12 C12          1.1550    -0.0110    -2.4360 c3         1 M40       0.059700
     13 C13          0.7900     1.4240    -2.8210 c3         1 M40      -0.091400
     14 C14         -0.1860     1.9960    -1.7910 c3         1 M40      -0.066700
     15 C15         -0.4540     3.4690    -2.1070 c3         1 M40      -0.071900
     16 C16         -1.4310     4.0420    -1.0760 c3         1 M40      -0.075400
     17 C17         -2.7450     3.2610    -1.1320 c3         1 M40      -0.080400
     18 C18         -2.4780     1.7880    -0.8180 c3         1 M40      -0.075400
     19 C19         -1.5010     1.2160    -1.8470 c3         1 M40      -0.071900
     20 C20          2.0180    -0.6160    -3.5130 c          1 M40       0.690100
     21 N21          1.5480    -0.7270    -4.7710 ns         1 M40      -0.530900
     22 C22          2.3870    -1.3150    -5.8190 c3         1 M40       0.148700
     23 C23          1.4960    -1.8920    -6.9210 c3         1 M40      -0.097400
     24 C24          0.7280    -3.0980    -6.3770 c3         1 M40      -0.153700
     25 C25         -0.1570    -3.7190    -7.4830 c3         1 M40      -0.096400
     26 C26         -1.5080    -3.0090    -7.2410 c3         1 M40       0.095000
     27 N27         -1.5000    -2.6280    -5.8230 ns         1 M40      -0.593900
     28 C28         -0.2570    -2.6630    -5.3140 c          1 M40       0.708500
     29 O29          0.0340    -2.3870    -4.1700 o          1 M40      -0.637500
     30 O32          3.1350    -1.0050    -3.2470 o          1 M40      -0.668100
     31 H1           0.4730    -0.8840     2.4090 h1         1 M40       0.052700
     32 H3           2.1060     2.1350     3.6990 ha         1 M40       0.137500
     33 H10          1.6870     2.0300    -2.8440 hc         1 M40       0.085200
     34 H11          0.3260     1.4280    -3.8000 hc         1 M40       0.085200
     35 H12          0.2390     1.9130    -0.7990 hc         1 M40       0.050700
     36 H13          0.4780     4.0210    -2.0650 hc         1 M40       0.047450
     37 H14         -0.8850     3.5530    -3.0970 hc         1 M40       0.047450
     38 H15         -1.0020     3.9540    -0.0850 hc         1 M40       0.030700
     39 H16         -1.6220     5.0840    -1.3020 hc         1 M40       0.030700
     40 H17         -3.1720     3.3450    -2.1240 hc         1 M40       0.027700
     41 H18         -3.4350     3.6650    -0.4010 hc         1 M40       0.027700
     42 H19         -2.0470     1.7040     0.1730 hc         1 M40       0.030700
     43 H20         -3.4090     1.2360    -0.8600 hc         1 M40       0.030700
     44 H21         -1.3110     0.1740    -1.6220 hc         1 M40       0.047450
     45 H22         -1.9300     1.3050    -2.8380 hc         1 M40       0.047450
     46 H23          0.6350    -0.3820    -4.9960 hn         1 M40       0.347500
     47 H24          2.9930    -2.1060    -5.3940 h1         1 M40       0.066700
     48 H25          0.7950    -1.1350    -7.2510 hc         1 M40       0.091700
     49 H26          2.1120    -2.2030    -7.7560 hc         1 M40       0.091700
     50 H27          1.4080    -3.8400    -5.9790 hc         1 M40       0.073700
     51 H28          0.2320    -3.4820    -8.4660 hc         1 M40       0.053200
     52 H29         -0.2540    -4.7890    -7.3440 hc         1 M40       0.053200
     53 H30         -2.3280    -3.6880    -7.4410 h1         1 M40       0.043700
     54 H31         -1.5830    -2.1270    -7.8640 h1         1 M40       0.043700
     55 H32         -2.3160    -2.3730    -5.3030 hn         1 M40       0.328500
     56 H35          4.9110    -0.4430    -7.4950 ho         1 M40       0.394000
     57 S1           2.2870     1.1560    -6.9870 s6         1 M40       1.260800
     58 O2           3.1070     2.2820    -7.2690 o          1 M40      -0.705200
     59 O3           1.4820     1.5740    -5.7650 o          1 M40      -0.705200
     60 O4           1.3080     0.7110    -7.9150 o          1 M40      -0.705200
     61 C30          3.2970    -0.2360    -6.4090 c3         1 M40      -0.036100
     62 H4           0.4740     0.8850     2.4090 h1         1 M40       0.052700
     63 H2           3.6040     2.1350     5.6590 ha         1 M40       0.125500
     64 H5           4.3530    -0.0010     6.6370 ha         1 M40       0.121000
     65 H6           3.6130    -2.1360     5.6500 ha         1 M40       0.125500
     66 H7           2.1540    -2.2290     3.9550 ha         1 M40       0.137500
     67 H8           2.8890    -0.0010    -1.1690 hn         1 M40       0.340500
     68 H9           0.2500    -0.5970    -2.3270 h1         1 M40       0.101700
     69 H34          3.9870     0.1100    -5.6490 h2         1 M40       0.078700
     70 O31          4.0310    -0.7810    -7.5070 oh         1 M40      -0.601800
@<TRIPOS>BOND
     1    70    61 1
     2    61    22 1
     3    17    16 1
     4    17    18 1
     5    22    23 1
     6    22    21 1
     7    16    15 1
     8    15    14 1
     9    23    24 1
    10    21    20 1
    11    19    18 1
    12    19    14 1
    13    13    14 1
    14    13    12 1
    15    20    12 1
    16    20    30 2
    17    12    11 1
    18    29    28 2
    19    24    28 1
    20    24    25 1
    21    28    27 1
    22    25    26 1
    23    11     2 1
    24    27    26 1
    25     1     2 2
    26     2     3 1
    27     3     4 1
    28     4     5 1
    29    10     5 ar
    30    10     9 ar
    31     5     6 ar
    32     9     8 ar
    33     6     7 ar
    34     8     7 ar
    35     4    31 1
    36     6    32 1
    37    13    33 1
    38    13    34 1
    39    14    35 1
    40    15    36 1
    41    15    37 1
    42    16    38 1
    43    16    39 1
    44    17    40 1
    45    17    41 1
    46    18    42 1
    47    18    43 1
    48    19    44 1
    49    19    45 1
    50    21    46 1
    51    22    47 1
    52    23    48 1
    53    23    49 1
    54    24    50 1
    55    25    51 1
    56    25    52 1
    57    26    53 1
    58    26    54 1
    59    27    55 1
    60    70    56 1
    61    57    58 1
    62    57    59 1
    63    57    60 1
    64    57    61 1
    65     4    62 1
    66     7    63 1
    67     8    64 1
    68     9    65 1
    69    10    66 1
    70    11    67 1
    71    12    68 1
    72    61    69 1
@<TRIPOS>SUBSTRUCTURE
     1 M40         1 TEMP              0 ****  ****    0 ROOT
