@<TRIPOS>MOLECULE
M42
   24    26     1     0     0
SMALL
bcc


@<TRIPOS>ATOM
      1 C1           0.0000     0.0000     0.0000 ca         1 M42      -0.045000
      2 C2           1.4000     0.0000     0.0000 ca         1 M42      -0.124800
      3 C3           2.1030     0.0000     1.2200 ca         1 M42      -0.041400
      4 C4           1.3950    -0.0010     2.4180 ca         1 M42      -0.007900
      5 C5           0.0060    -0.0010     2.3980 ca         1 M42       0.105100
      6 C6          -0.6790    -0.0010     1.1830 ca         1 M42      -0.119000
      7 C7           2.1550     0.0020    -1.2540 cc         1 M42       0.004600
      8 C8           3.5110     0.0030    -1.1940 cd         1 M42      -0.221200
      9 C9           4.1670     0.0000     0.0550 c          1 M42       0.592700
     10 N10          3.4840    -0.0010     1.2120 ns         1 M42       0.045900
     11 O11         -0.4490    -0.0010     3.6840 os         1 M42      -0.309900
     12 C12          0.6700     0.4120     4.4900 c3         1 M42       0.438200
     13 O13          1.8140    -0.0010     3.7170 os         1 M42      -0.313900
     14 C14          1.4430     0.0030    -2.5820 c3         1 M42       0.053100
     15 O15          5.3860    -0.0010     0.0840 o          1 M42      -0.690500
     16 H1          -0.5420    -0.0650    -0.9360 ha         1 M42       0.116000
     17 H6          -1.7630    -0.0020     1.1790 ha         1 M42       0.117000
     18 H8           4.0910     0.0040    -2.1090 ha         1 M42       0.139000
     19 HN10         3.9830    -0.0030     2.0800 hn         1 M42       0.184500
     20 H12          0.6670     1.4880     4.6190 h2         1 M42       0.014700
     21 H12A         0.6560    -0.0940     5.4470 h2         1 M42       0.014700
     22 H14          0.8060     0.8770    -2.6490 hc         1 M42       0.015367
     23 H14A         2.1720     0.0250    -3.3830 hc         1 M42       0.015367
     24 H14B         0.8380    -0.8910    -2.6680 hc         1 M42       0.015367
@<TRIPOS>BOND
     1     1     2 ar  
     2     1     6 ar  
     3     1    16 1   
     4     2     3 ar  
     5     2     7 1   
     6     3     4 ar  
     7     3    10 1   
     8     4     5 ar  
     9     4    13 1   
    10     5     6 ar  
    11     5    11 1   
    12     6    17 1   
    13     7     8 2   
    14     7    14 1   
    15     8     9 1   
    16     8    18 1   
    17     9    10 1   
    18     9    15 2   
    19    10    19 1   
    20    11    12 1   
    21    12    13 1   
    22    12    20 1   
    23    12    21 1   
    24    14    22 1   
    25    14    23 1   
    26    14    24 1   
@<TRIPOS>SUBSTRUCTURE
     1 M42         1 TEMP              0 ****  ****    0 ROOT
