@<TRIPOS>MOLECULE
M44
   27    26     1     0     0
SMALL
bcc


@<TRIPOS>ATOM
      1 P            0.0000     0.0000     0.0000 p5         1 M44       0.583600
      2 C1           2.2100    -1.1870     0.6860 c3         1 M44       0.196000
      3 N1           1.6830     0.0000     0.0000 n7         1 M44      -0.594300
      4 O1          -0.5370     0.0000     1.5170 o          1 M44      -0.639000
      5 C2           2.5090    -2.2790    -0.3440 c3         1 M44      -0.016350
      6 N2          -0.5610     1.3740    -0.7930 n7         1 M44      -0.594300
      7 O2          -0.4930    -1.2080    -0.6980 o          1 M44      -0.639000
      8 C3           3.4950    -0.8190     1.4290 c3         1 M44      -0.016350
      9 C4          -2.0300     1.4080    -0.8130 c3         1 M44       0.196000
     10 C5          -2.5080     2.8570    -0.6940 c3         1 M44      -0.016350
     11 C6          -2.5360     0.8110    -2.1280 c3         1 M44      -0.016350
     12 H1           1.4750    -1.5510     1.3940 h1         1 M44       0.047700
     13 HN1          2.1830     0.8660     0.0420 hn         1 M44       0.264800
     14 H2           3.1110    -1.8660    -1.1440 hc         1 M44      -0.005967
     15 H2A          1.5790    -2.6580    -0.7490 hc         1 M44      -0.005967
     16 H2B          3.0500    -3.0870     0.1340 hc         1 M44      -0.005967
     17 HN2         -0.0410     2.2280    -0.7430 hn         1 M44       0.264800
     18 H3           3.9140    -1.7070     1.8880 hc         1 M44      -0.005967
     19 H3A          3.2730    -0.0870     2.1950 hc         1 M44      -0.005967
     20 H3B          4.2110    -0.4040     0.7290 hc         1 M44      -0.005967
     21 H4          -2.4160     0.8300     0.0180 h1         1 M44       0.047700
     22 H5          -3.5890     2.8880    -0.7690 hc         1 M44      -0.005967
     23 H5A         -2.0740     3.4480    -1.4910 hc         1 M44      -0.005967
     24 H5B         -2.2020     3.2610     0.2640 hc         1 M44      -0.005967
     25 H6          -3.6010     0.9850    -2.2170 hc         1 M44      -0.005967
     26 H6A         -2.0220     1.2790    -2.9580 hc         1 M44      -0.005967
     27 H6B         -2.3420    -0.2550    -2.1380 hc         1 M44      -0.005967
@<TRIPOS>BOND
     1     1     3 1   
     2     1     4 1   
     3     1     6 1   
     4     1     7 1   
     5     2     3 1   
     6     2     5 1   
     7     2     8 1   
     8     2    12 1   
     9     3    13 1   
    10     5    14 1   
    11     5    15 1   
    12     5    16 1   
    13     6     9 1   
    14     6    17 1   
    15     8    18 1   
    16     8    19 1   
    17     8    20 1   
    18     9    10 1   
    19     9    11 1   
    20     9    21 1   
    21    10    22 1   
    22    10    23 1   
    23    10    24 1   
    24    11    25 1   
    25    11    26 1   
    26    11    27 1   
@<TRIPOS>SUBSTRUCTURE
     1 M44         1 TEMP              0 ****  ****    0 ROOT
