@<TRIPOS>MOLECULE
M46
   46    48     1     0     0
SMALL
bcc


@<TRIPOS>ATOM
      1 F23          0.0000     0.0000     0.0000 f          1 M46      -0.128900
      2 C23          1.3510     0.0000     0.0000 ca         1 M46       0.107900
      3 C22          2.0440     0.0000     1.1990 ca         1 M46      -0.130000
      4 C24          2.0440    -0.0040    -1.1990 ca         1 M46      -0.138000
      5 C25          3.4260    -0.0040    -1.1980 ca         1 M46      -0.072000
      6 C26          4.1160    -0.0000    -0.0010 ca         1 M46      -0.112000
      7 C21          3.4260     0.0000     1.1970 ca         1 M46      -0.062300
      8 C16          4.1810    -0.0000     2.5020 c3         1 M46       0.029900
      9 C15          4.4360    -1.4420     2.9420 c3         1 M46      -0.028400
     10 C14          5.2020    -1.4430     4.2670 c3         1 M46       0.143800
     11 N13          5.4480    -2.8280     4.6910 n7         1 M46      -0.588200
     12 C12          6.1830    -2.8670     5.9620 c3         1 M46       0.144800
     13 C11          6.4190    -4.3220     6.3700 c3         1 M46       0.026900
     14 C08          7.1740    -4.3630     7.6730 ca         1 M46      -0.082300
     15 C07          6.4680    -4.3820     8.8740 ca         1 M46      -0.094000
     16 C06          7.1230    -4.4180    10.0680 ca         1 M46      -0.079000
     17 C09          8.5350    -4.3870     7.6600 ca         1 M46      -0.144300
     18 C10          9.2440    -4.4250     8.8720 ca         1 M46       0.383600
     19 N01         10.5830    -4.4480     8.8870 nb         1 M46      -0.581000
     20 C05          8.5240    -4.4370    10.0910 ca         1 M46      -0.155300
     21 C04          9.2360    -4.4760    11.3070 ca         1 M46      -0.052000
     22 C03         10.5970    -4.4930    11.2600 ca         1 M46      -0.225300
     23 C02         11.2530    -4.4840    10.0200 ca         1 M46       0.504200
     24 N02         12.6390    -4.5070     9.9860 nv         1 M46      -0.663500
     25 H22          1.5040     0.0000     2.1370 ha         1 M46       0.122000
     26 H24          1.5020    -0.0070    -2.1380 ha         1 M46       0.118000
     27 H25          3.9680    -0.0060    -2.1360 ha         1 M46       0.106000
     28 H26          5.2000    -0.0000    -0.0010 ha         1 M46       0.109000
     29 H161         5.1280     0.5110     2.3710 hc         1 M46       0.020200
     30 H162         3.5970     0.5100     3.2570 hc         1 M46       0.020200
     31 H151         5.0210    -1.9520     2.1870 hc         1 M46       0.023200
     32 H152         3.4900    -1.9530     3.0720 hc         1 M46       0.023200
     33 H141         4.6170    -0.9330     5.0230 h1         1 M46       0.006700
     34 H142         6.1490    -0.9320     4.1370 h1         1 M46       0.006700
     35 H13          5.9740    -3.3040     3.9860 hn         1 M46       0.253800
     36 H121         5.6050    -2.3660     6.7300 h1         1 M46       0.010700
     37 H122         7.1370    -2.3660     5.8430 h1         1 M46       0.010700
     38 H111         5.4660    -4.8230     6.4880 hc         1 M46       0.024700
     39 H112         6.9970    -4.8230     5.6020 hc         1 M46       0.024700
     40 H07          5.3850    -4.3690     8.8570 ha         1 M46       0.108000
     41 H09          9.0660    -4.4650     6.7190 ha         1 M46       0.120000
     42 H06          6.5630    -4.4320    10.9960 ha         1 M46       0.107000
     43 H04          8.7140    -4.4820    12.2570 ha         1 M46       0.109000
     44 H03         11.1720    -4.5220    12.1780 ha         1 M46       0.116000
     45 H021        13.1240    -5.3820     9.9430 hn         1 M46       0.276800
     46 H022        13.1540    -3.6490     9.9770 hn         1 M46       0.276800
@<TRIPOS>BOND
     1     1     2 1   
     2     2     3 ar  
     3     2     4 ar  
     4     3     7 ar  
     5     3    25 1   
     6     4     5 ar  
     7     4    26 1   
     8     5     6 ar  
     9     5    27 1   
    10     6     7 ar  
    11     6    28 1   
    12     7     8 1   
    13     8     9 1   
    14     8    29 1   
    15     8    30 1   
    16     9    10 1   
    17     9    31 1   
    18     9    32 1   
    19    10    11 1   
    20    10    33 1   
    21    10    34 1   
    22    11    12 1   
    23    11    35 1   
    24    12    13 1   
    25    12    36 1   
    26    12    37 1   
    27    13    14 1   
    28    13    38 1   
    29    13    39 1   
    30    14    15 ar  
    31    14    17 ar  
    32    15    16 ar  
    33    15    40 1   
    34    16    20 ar  
    35    16    42 1   
    36    17    18 ar  
    37    17    41 1   
    38    18    19 ar  
    39    18    20 ar  
    40    19    23 ar  
    41    20    21 ar  
    42    21    22 ar  
    43    21    43 1   
    44    22    23 ar  
    45    22    44 1   
    46    23    24 1   
    47    24    45 1   
    48    24    46 1   
@<TRIPOS>SUBSTRUCTURE
     1 M46         1 TEMP              0 ****  ****    0 ROOT
