@<TRIPOS>MOLECULE
molecule
   43    45     1     0     0
SMALL
bcc


@<TRIPOS>ATOM
      1 F23          0.0000     0.0000     0.0000 f          1 M48      -0.141900
      2 C25          3.6290     0.0000     0.0000 ca         1 M48      -0.101000
      3 C24          2.3250     0.0000     0.4570 ca         1 M48      -0.170000
      4 C23          1.2750     0.0000    -0.4460 ca         1 M48       0.134900
      5 C22          1.5330     0.0020    -1.8060 ca         1 M48      -0.166000
      6 C26          3.8860     0.0010    -1.3580 ca         1 M48      -0.140000
      7 C21          2.8390     0.0020    -2.2620 ca         1 M48      -0.058300
      8 C15          3.1200     0.0030    -3.7420 c3         1 M48      -0.038100
      9 C14          3.2150     1.4450    -4.2420 c3         1 M48       0.160800
     10 N13          3.4900     1.4450    -5.6850 n7         1 M48      -0.823200
     11 C12          3.5870     2.8170    -6.2020 c3         1 M48       0.160800
     12 C11          3.8730     2.7770    -7.7040 c3         1 M48      -0.038100
     13 C08          3.9740     4.1840    -8.2350 ca         1 M48      -0.075300
     14 C07          5.2100     4.8240    -8.2490 ca         1 M48      -0.125000
     15 C06          5.3340     6.0950    -8.7230 ca         1 M48      -0.107000
     16 C09          2.8550     4.8070    -8.6970 ca         1 M48      -0.166300
     17 C10          2.9420     6.1190    -9.1920 ca         1 M48       0.433600
     18 N01          1.8590     6.7550    -9.6530 nb         1 M48      -0.706000
     19 C05          4.2010     6.7700    -9.2010 ca         1 M48      -0.165300
     20 C04          4.2880     8.0870    -9.6990 ca         1 M48      -0.079000
     21 C03          3.1500     8.6840   -10.1490 ca         1 M48      -0.257300
     22 C02          1.9350     7.9840   -10.1200 ca         1 M48       0.690200
     23 N02          0.7860     8.6040   -10.5860 nv         1 M48      -1.086500
     24 H22          0.7120     0.0020    -2.5130 ha         1 M48       0.145000
     25 H25          4.4500    -0.0000     0.7060 ha         1 M48       0.136000
     26 H26          4.9090     0.0010    -1.7150 ha         1 M48       0.137000
     27 H151         2.3180    -0.5080    -4.2620 hc         1 M48       0.057700
     28 H152         4.0560    -0.5080    -3.9320 hc         1 M48       0.057700
     29 H141         2.2790     1.9560    -4.0520 h1         1 M48       0.037700
     30 H142         4.0170     1.9560    -3.7220 h1         1 M48       0.037700
     31 H13          2.7570     0.9600    -6.1640 hn         1 M48       0.351800
     32 H121         4.3910     3.3380    -5.6960 h1         1 M48       0.038200
     33 H122         2.6530     3.3370    -6.0260 h1         1 M48       0.038200
     34 H111         3.0700     2.2560    -8.2110 hc         1 M48       0.056200
     35 H112         4.8070     2.2570    -7.8800 hc         1 M48       0.056200
     36 H07          6.0860     4.3040    -7.8800 ha         1 M48       0.134000
     37 H09          1.9220     4.2610    -8.7720 ha         1 M48       0.149000
     38 H06          6.3010     6.5830    -8.7290 ha         1 M48       0.133000
     39 H04          5.2350     8.6130    -9.7150 ha         1 M48       0.138000
     40 H03          3.1850     9.6940   -10.5380 ha         1 M48       0.142000
     41 H021         0.2070     9.1250    -9.9560 hn         1 M48       0.436800
     42 H022         0.5190     8.5070   -11.5460 hn         1 M48       0.436800
     43 H24          2.1240    -0.0010     1.5220 ha         1 M48       0.144000
@<TRIPOS>BOND
     1     1     4 1
     2     4     3 ar
     3     4     5 ar
     4     3     2 ar
     5     2     6 ar
     6     6     7 ar
     7     5     7 ar
     8     7     8 1
     9     8     9 1
    10     9    10 1
    11    10    11 1
    12    11    12 1
    13    12    13 1
    14    13    14 ar
    15    13    16 ar
    16    14    15 ar
    17    15    19 ar
    18    16    17 ar
    19    17    18 ar
    20    17    19 ar
    21    18    22 ar
    22    19    20 ar
    23    20    21 ar
    24    21    22 ar
    25    22    23 1
    26     3    43 1
    27     5    24 1
    28     2    25 1
    29     6    26 1
    30     8    27 1
    31     8    28 1
    32     9    29 1
    33     9    30 1
    34    10    31 1
    35    11    32 1
    36    11    33 1
    37    12    34 1
    38    12    35 1
    39    14    36 1
    40    16    37 1
    41    15    38 1
    42    20    39 1
    43    21    40 1
    44    23    41 1
    45    23    42 1
@<TRIPOS>SUBSTRUCTURE
     1 M48         1 TEMP              0 ****  ****    0 ROOT
