@<TRIPOS>MOLECULE
M49
   37    38     1     0     0
SMALL
bcc


@<TRIPOS>ATOM
      1 O12          0.0000     0.0000     0.0000 o          1 M49      -0.634100
      2 C11          1.2140     0.0000     0.0000 c          1 M49       0.558100
      3 C20          1.9670     0.0000     1.3040 c3         1 M49      -0.067100
      4 N10          1.8860    -0.0070    -1.1680 ns         1 M49      -0.036100
      5 C6           1.1880    -0.1110    -2.3790 ca         1 M49      -0.113400
      6 C1          -0.0580     0.4880    -2.5190 ca         1 M49      -0.037000
      7 C2          -0.7380     0.3820    -3.7120 ca         1 M49      -0.133300
      8 C5           1.7410    -0.8090    -3.4450 ca         1 M49      -0.100000
      9 C4           1.0560    -0.9130    -4.6360 ca         1 M49      -0.102000
     10 C3          -0.1960    -0.3190    -4.7820 ca         1 M49      -0.110400
     11 N9          -1.0680    -0.2850    -5.8720 ns         1 M49      -0.008100
     12 C8          -2.1920     0.4020    -5.6030 c          1 M49       0.609500
     13 O13         -3.1200     0.5920    -6.3610 o          1 M49      -0.638500
     14 C7          -2.0770     0.9030    -4.1790 c3         1 M49      -0.066400
     15 C14         -2.1000     2.4330    -4.1390 c3         1 M49      -0.013400
     16 C15         -3.5030     2.9310    -4.4960 c3         1 M49       0.029000
     17 N16         -3.5240     4.3960    -4.4590 ns         1 M49      -0.205900
     18 C17         -4.6630     5.0600    -4.7400 c          1 M49       0.568100
     19 O18         -5.6680     4.4450    -5.0250 o          1 M49      -0.640100
     20 C19         -4.6850     6.5660    -4.7010 c3         1 M49      -0.068100
     21 H1           1.2850     0.2210     2.1160 hc         1 M49       0.025033
     22 H2           2.7450     0.7530     1.2720 hc         1 M49       0.025033
     23 H3           2.4140    -0.9740     1.4630 hc         1 M49       0.025033
     24 H4           2.8860     0.0460    -1.1700 hn         1 M49       0.167500
     25 H5          -0.4560     1.1030    -1.7220 ha         1 M49       0.144000
     26 H6           2.7140    -1.2730    -3.3390 ha         1 M49       0.107000
     27 H7           1.4930    -1.4590    -5.4640 ha         1 M49       0.107000
     28 H8          -0.8790    -0.7210    -6.7520 hn         1 M49       0.175500
     29 H9          -2.8730     0.4920    -3.5700 hc         1 M49       0.071700
     30 H10         -1.3850     2.8230    -4.8540 hc         1 M49       0.019700
     31 H11         -1.8380     2.7720    -3.1450 hc         1 M49       0.019700
     32 H12         -3.7650     2.5910    -5.4910 h1         1 M49       0.045700
     33 H13         -4.2170     2.5410    -3.7810 h1         1 M49       0.045700
     34 H14         -2.6930     4.9030    -4.2290 hn         1 M49       0.169500
     35 H15         -3.9640     6.9560    -5.4100 hc         1 M49       0.020700
     36 H16         -5.6750     6.9190    -4.9630 hc         1 M49       0.020700
     37 H17         -4.4320     6.9060    -3.7040 hc         1 M49       0.020700
@<TRIPOS>BOND
     1     1     2 2   
     2     2     3 1   
     3     2     4 1   
     4     3    21 1   
     5     3    22 1   
     6     3    23 1   
     7     4     5 1   
     8     4    24 1   
     9     5     6 ar  
    10     5     8 ar  
    11     6     7 ar  
    12     6    25 1   
    13     7    10 ar  
    14     7    14 1   
    15     8     9 ar  
    16     8    26 1   
    17     9    10 ar  
    18     9    27 1   
    19    10    11 1   
    20    11    12 1   
    21    11    28 1   
    22    12    13 2   
    23    12    14 1   
    24    14    15 1   
    25    14    29 1   
    26    15    16 1   
    27    15    30 1   
    28    15    31 1   
    29    16    17 1   
    30    16    32 1   
    31    16    33 1   
    32    17    18 1   
    33    17    34 1   
    34    18    19 2   
    35    18    20 1   
    36    20    35 1   
    37    20    36 1   
    38    20    37 1   
@<TRIPOS>SUBSTRUCTURE
     1 M49         1 TEMP              0 ****  ****    0 ROOT
