@<TRIPOS>MOLECULE
molecule
   37    38     1     0     0
SMALL
bcc


@<TRIPOS>ATOM
      1 O12          0.0000     0.0000     0.0000 o          1 M49      -0.594100
      2 C11          1.2140     0.0000     0.0000 c          1 M49       0.656100
      3 C20          1.9670     0.0000     1.3040 c3         1 M49      -0.170100
      4 N10          1.8860    -0.0070    -1.1680 ns         1 M49      -0.479100
      5 C6           1.1880    -0.1110    -2.3790 ca         1 M49       0.029600
      6 C1          -0.0580     0.4880    -2.5190 ca         1 M49      -0.070000
      7 C2          -0.7380     0.3820    -3.7120 ca         1 M49      -0.129300
      8 C5           1.7410    -0.8090    -3.4450 ca         1 M49      -0.127000
      9 C4           1.0560    -0.9130    -4.6360 ca         1 M49      -0.141000
     10 C3          -0.1960    -0.3190    -4.7820 ca         1 M49       0.039600
     11 N9          -1.0680    -0.2850    -5.8720 ns         1 M49      -0.461100
     12 C8          -2.1920     0.4020    -5.6030 c          1 M49       0.710500
     13 O13         -3.1200     0.5920    -6.3610 o          1 M49      -0.599500
     14 C7          -2.0770     0.9030    -4.1790 c3         1 M49      -0.103400
     15 C14         -2.1000     2.4330    -4.1390 c3         1 M49      -0.077400
     16 C15         -3.5030     2.9310    -4.4960 c3         1 M49       0.102000
     17 N16         -3.5240     4.3960    -4.4590 ns         1 M49      -0.592900
     18 C17         -4.6630     5.0600    -4.7400 c          1 M49       0.655100
     19 O18         -5.6680     4.4450    -5.0250 o          1 M49      -0.602100
     20 C19         -4.6850     6.5660    -4.7010 c3         1 M49      -0.172100
     21 H1           1.2850     0.2210     2.1160 hc         1 M49       0.064033
     22 H2           2.7450     0.7530     1.2720 hc         1 M49       0.064033
     23 H3           2.4140    -0.9740     1.4630 hc         1 M49       0.064033
     24 H4           2.8860     0.0460    -1.1700 hn         1 M49       0.324500
     25 H5          -0.4560     1.1030    -1.7220 ha         1 M49       0.167000
     26 H6           2.7140    -1.2730    -3.3390 ha         1 M49       0.135000
     27 H7           1.4930    -1.4590    -5.4640 ha         1 M49       0.135000
     28 H8          -0.8790    -0.7210    -6.7520 hn         1 M49       0.337500
     29 H9          -2.8730     0.4920    -3.5700 hc         1 M49       0.103700
     30 H10         -1.3850     2.8230    -4.8540 hc         1 M49       0.053200
     31 H11         -1.8380     2.7720    -3.1450 hc         1 M49       0.053200
     32 H12         -3.7650     2.5910    -5.4910 h1         1 M49       0.069700
     33 H13         -4.2170     2.5410    -3.7810 h1         1 M49       0.069700
     34 H14         -2.6930     4.9030    -4.2290 hn         1 M49       0.308500
     35 H15         -3.9640     6.9560    -5.4100 hc         1 M49       0.059033
     36 H16         -5.6750     6.9190    -4.9630 hc         1 M49       0.059033
     37 H17         -4.4320     6.9060    -3.7040 hc         1 M49       0.059033
@<TRIPOS>BOND
     1     9     8 ar
     2     9    10 ar
     3     8     5 ar
     4    10    11 1
     5    10     7 ar
     6     5     4 1
     7     5     6 ar
     8    11    12 1
     9     4     2 1
    10     1     2 2
    11     7     6 ar
    12     7    14 1
    13     2     3 1
    14    12    13 2
    15    12    14 1
    16    15    14 1
    17    15    16 1
    18    16    17 1
    19    17    18 1
    20    20    18 1
    21    18    19 2
    22     3    21 1
    23     3    22 1
    24     3    23 1
    25     4    24 1
    26     6    25 1
    27     8    26 1
    28     9    27 1
    29    11    28 1
    30    14    29 1
    31    15    30 1
    32    15    31 1
    33    16    32 1
    34    16    33 1
    35    17    34 1
    36    20    35 1
    37    20    36 1
    38    20    37 1
@<TRIPOS>SUBSTRUCTURE
     1 M49         1 TEMP              0 ****  ****    0 ROOT
