@<TRIPOS>MOLECULE
M4A
   22    23     1     0     0
SMALL
bcc


@<TRIPOS>ATOM
      1 CAA          0.0000     0.0000     0.0000 c3         1 M4A      -0.044400
      2 NAB          2.9000    -0.0030     3.9620 nv         1 M4A      -0.552200
      3 CAC          6.0420     0.0000     0.0000 ca         1 M4A      -0.093000
      4 CAD          6.2400     0.0000     1.3780 ca         1 M4A      -0.104000
      5 CAE          4.7880     0.0000    -0.5280 ca         1 M4A      -0.145300
      6 CAF          5.1810    -0.0020     2.2360 ca         1 M4A      -0.077000
      7 CAG          1.4920    -0.0010     2.0010 ca         1 M4A      -0.238300
      8 NAH          2.4270     0.0000    -0.1670 nb         1 M4A      -0.573000
      9 CAI          1.3750    -0.0000     0.6180 ca         1 M4A       0.388600
     10 CAJ          2.7500    -0.0020     2.5830 ca         1 M4A       0.078600
     11 CAK          3.6720    -0.0000     0.3260 ca         1 M4A       0.383600
     12 CAL          3.8770    -0.0010     1.7260 ca         1 M4A      -0.166300
     13 HAA          0.0880     0.0790    -1.0770 hc         1 M4A       0.013700
     14 HAAA        -0.5100    -0.9210     0.2540 hc         1 M4A       0.013700
     15 HAAB        -0.5660     0.8420     0.3790 hc         1 M4A       0.013700
     16 HNAB         2.9420    -0.8700     4.4600 hn         1 M4A       0.277300
     17 HNAA         2.9280     0.8630     4.4620 hn         1 M4A       0.277300
     18 HAC          6.8990     0.0010    -0.6620 ha         1 M4A       0.102000
     19 HAD          7.2490    -0.0000     1.7730 ha         1 M4A       0.102000
     20 HAE          4.6500     0.0000    -1.6030 ha         1 M4A       0.117000
     21 HAF          5.3480    -0.0020     3.3060 ha         1 M4A       0.109000
     22 HAG          0.6090    -0.1050     2.6200 ha         1 M4A       0.119000
@<TRIPOS>BOND
     1     1     9 1   
     2     1    13 1   
     3     1    14 1   
     4     1    15 1   
     5     2    10 1   
     6     2    16 1   
     7     2    17 1   
     8     3     4 ar  
     9     3     5 ar  
    10     3    18 1   
    11     4     6 ar  
    12     4    19 1   
    13     5    11 ar  
    14     5    20 1   
    15     6    12 ar  
    16     6    21 1   
    17     7     9 ar  
    18     7    10 ar  
    19     7    22 1   
    20     8     9 ar  
    21     8    11 ar  
    22    10    12 ar  
    23    11    12 ar  
@<TRIPOS>SUBSTRUCTURE
     1 M4A         1 TEMP              0 ****  ****    0 ROOT
