@<TRIPOS>MOLECULE
M4D
   49    50     1     0     0
SMALL
bcc


@<TRIPOS>ATOM
      1 N2           0.0000     0.0000     0.0000 nz         1 M4D       0.085400
      2 C17          1.4690     0.0000     0.0000 c3         1 M4D      -0.054200
      3 C16          1.9800     0.0000     1.4420 c3         1 M4D      -0.037400
      4 C15          3.5090     0.0010     1.4420 c3         1 M4D      -0.022400
      5 C14          4.0200     0.0010     2.8840 c3         1 M4D       0.037900
      6 C3           5.5270     0.0020     2.8840 ca         1 M4D      -0.103300
      7 C5           6.2120    -1.1720     2.9810 ca         1 M4D      -0.082000
      8 C4           7.6040    -1.1880     2.9820 ca         1 M4D      -0.098000
      9 C2           8.3200    -0.0330     2.8880 ca         1 M4D      -0.120300
     10 C1           6.2310     1.2100     2.7780 ca         1 M4D      -0.140300
     11 C8           5.5570     2.4440     2.6690 ca         1 M4D      -0.089000
     12 C7           6.3020     3.5800     2.5690 ca         1 M4D      -0.191600
     13 C6           7.7010     3.5000     2.5770 ca         1 M4D       0.514200
     14 N1           8.4470     4.6650     2.4740 nv         1 M4D      -0.646500
     15 N            8.3260     2.3450     2.6790 nb         1 M4D      -0.569000
     16 C            7.6470     1.1970     2.7860 ca         1 M4D       0.382600
     17 C10          5.6220     4.9190     2.4510 c3         1 M4D       0.036900
     18 C9           5.6150     5.6110     3.8160 c3         1 M4D      -0.027400
     19 C12          4.9260     6.9710     3.6960 c3         1 M4D      -0.029400
     20 C11          4.9190     7.6620     5.0600 c3         1 M4D      -0.027400
     21 C13          4.2290     9.0220     4.9400 c3         1 M4D       0.006900
     22 H1          -0.3340    -0.8200     0.4670 hn         1 M4D       0.223467
     23 H2          -0.3340     0.0050    -0.9440 hn         1 M4D       0.223467
     24 H4           1.8300    -0.8840    -0.5110 hx         1 M4D       0.086700
     25 H5           1.8300     0.8840    -0.5110 hx         1 M4D       0.086700
     26 H6           1.6180     0.8840     1.9530 hc         1 M4D       0.033200
     27 H7           1.6190    -0.8850     1.9530 hc         1 M4D       0.033200
     28 H8           3.8710    -0.8830     0.9310 hc         1 M4D       0.033200
     29 H9           3.8700     0.8860     0.9310 hc         1 M4D       0.033200
     30 H10          3.6590    -0.8840     3.3940 hc         1 M4D       0.025200
     31 H11          3.6580     0.8850     3.3950 hc         1 M4D       0.025200
     32 H12          5.6660    -2.1050     3.0580 ha         1 M4D       0.102000
     33 H13          8.1260    -2.1340     3.0610 ha         1 M4D       0.112000
     34 H14          9.4030    -0.0630     2.8900 ha         1 M4D       0.125000
     35 H15          4.4740     2.4870     2.6650 ha         1 M4D       0.106000
     36 H16          8.9240     5.0260     3.2760 hn         1 M4D       0.282800
     37 H17          8.5570     5.1120     1.5850 hn         1 M4D       0.282800
     38 H18          6.1570     5.5340     1.7370 hc         1 M4D       0.016200
     39 H19          4.6020     4.7780     2.1130 hc         1 M4D       0.016200
     40 H20          5.0800     4.9970     4.5300 hc         1 M4D       0.020700
     41 H21          6.6350     5.7520     4.1540 hc         1 M4D       0.020700
     42 H22          5.4610     7.5850     2.9820 hc         1 M4D       0.013200
     43 H23          3.9060     6.8300     3.3570 hc         1 M4D       0.013200
     44 H24          4.3840     7.0470     5.7740 hc         1 M4D       0.014200
     45 H25          5.9390     7.8020     5.3990 hc         1 M4D       0.014200
     46 H26          4.7610     9.6350     4.2220 hc         1 M4D       0.002367
     47 H27          3.2080     8.8810     4.6080 hc         1 M4D       0.002367
     48 H28          4.2300     9.5140     5.9050 hc         1 M4D       0.002367
     49 H231        -0.3340     0.8120     0.4800 hn         1 M4D       0.223467
@<TRIPOS>BOND
     1     1     2 1   
     2     1    22 1   
     3     1    23 1   
     4     1    49 1   
     5     2     3 1   
     6     2    24 1   
     7     2    25 1   
     8     3     4 1   
     9     3    26 1   
    10     3    27 1   
    11     4     5 1   
    12     4    28 1   
    13     4    29 1   
    14     5     6 1   
    15     5    30 1   
    16     5    31 1   
    17     6     7 ar  
    18     6    10 ar  
    19     7     8 ar  
    20     7    32 1   
    21     8     9 ar  
    22     8    33 1   
    23     9    16 ar  
    24     9    34 1   
    25    10    11 ar  
    26    10    16 ar  
    27    11    12 ar  
    28    11    35 1   
    29    12    13 ar  
    30    12    17 1   
    31    13    14 1   
    32    13    15 ar  
    33    14    36 1   
    34    14    37 1   
    35    15    16 ar  
    36    17    18 1   
    37    17    38 1   
    38    17    39 1   
    39    18    19 1   
    40    18    40 1   
    41    18    41 1   
    42    19    20 1   
    43    19    42 1   
    44    19    43 1   
    45    20    21 1   
    46    20    44 1   
    47    20    45 1   
    48    21    46 1   
    49    21    47 1   
    50    21    48 1   
@<TRIPOS>SUBSTRUCTURE
     1 M4D         1 TEMP              0 ****  ****    0 ROOT
