@<TRIPOS>MOLECULE
molecule
   47    50     1     0     0
SMALL
bcc


@<TRIPOS>ATOM
      1 C1           0.0000     0.0000     0.0000 ca         1 M4M      -0.138600
      2 N1          -4.9570     0.6080     1.1820 nv         1 M4M      -0.882200
      3 O1          -2.7940    -0.2410     2.2410 o          1 M4M      -0.535100
      4 S1          -6.6430     1.2540    -1.1950 s6         1 M4M       1.302100
      5 C2           1.3910     0.0000     0.0000 ca         1 M4M      -0.086000
      6 N2          -2.2020     0.5870    -3.6520 nu         1 M4M      -0.596000
      7 O2          -7.2190     0.7870    -2.5240 o          1 M4M      -0.690200
      8 S2           1.1840     5.2070    -5.1690 sy         1 M4M       1.204200
      9 C3           2.0790     0.0000     1.2010 ca         1 M4M      -0.125000
     10 N3           0.2670     6.1920    -6.1330 nz         1 M4M      -0.802500
     11 O3          -6.7500     2.6710    -1.1870 o          1 M4M      -0.690200
     12 C4           1.3930     0.0000     2.4010 ca         1 M4M      -0.115000
     13 O4          -7.2190     0.4250    -0.1950 o          1 M4M      -0.690200
     14 C5           0.0090    -0.0000     2.4200 ca         1 M4M      -0.085000
     15 C6          -0.6980     0.0000     1.2220 ca         1 M4M      -0.119600
     16 O6           2.2210     4.6920    -5.9930 o          1 M4M      -0.544800
     17 C7          -2.1770     0.0050     1.2210 c          1 M4M       0.600300
     18 O7          -0.1890    -0.2400    -2.3220 o          1 M4M      -0.539100
     19 C8          -2.8930     0.3070    -0.0290 ca         1 M4M      -0.241600
     20 O8           1.4320     5.9340    -3.9720 o          1 M4M      -0.544800
     21 C9          -4.2600     0.6000    -0.0160 ca         1 M4M       0.330600
     22 C10         -4.9200     0.8850    -1.2150 ca         1 M4M      -0.280500
     23 C11         -4.2440     0.8800    -2.3990 ca         1 M4M       0.013000
     24 C12         -2.8770     0.5900    -2.4400 ca         1 M4M       0.030600
     25 C13         -1.4040     1.6760    -4.0090 ca         1 M4M       0.303600
     26 C14         -0.6270     1.6210    -5.1590 ca         1 M4M      -0.201000
     27 C15          0.1610     2.7000    -5.5100 ca         1 M4M       0.002500
     28 C16          0.1770     3.8330    -4.7180 ca         1 M4M      -0.402500
     29 C17         -0.5950     3.8910    -3.5720 ca         1 M4M       0.002500
     30 C18         -1.3910     2.8180    -3.2190 ca         1 M4M      -0.201000
     31 C19         -2.1930     0.3040    -1.2550 ca         1 M4M      -0.080600
     32 C20         -0.7530     0.0050    -1.2730 c          1 M4M       0.590300
     33 HN1         -4.7700    -0.0900     1.8740 hn         1 M4M       0.459800
     34 HN1A        -5.6420     1.3170     1.3570 hn         1 M4M       0.459800
     35 H2           1.9340    -0.0000    -0.9370 ha         1 M4M       0.148000
     36 HN2         -2.3210    -0.1760    -4.2890 hn         1 M4M       0.466800
     37 H3           3.1620     0.0000     1.2000 ha         1 M4M       0.135000
     38 HN3         -0.0310     5.6840    -6.9420 hn         1 M4M       0.484467
     39 HN3A        -0.5350     6.5050    -5.6220 hn         1 M4M       0.484467
     40 H4           1.9440     0.0000     3.3340 ha         1 M4M       0.137000
     41 H5          -0.5210     0.0000     3.3650 ha         1 M4M       0.158000
     42 H11         -4.7760     1.0870    -3.3200 ha         1 M4M       0.168000
     43 H14         -0.6380     0.7340    -5.7800 ha         1 M4M       0.169000
     44 H15          0.7680     2.6580    -6.4060 ha         1 M4M       0.144000
     45 H17         -0.5840     4.7820    -2.9570 ha         1 M4M       0.144000
     46 H18         -1.9960     2.8640    -2.3210 ha         1 M4M       0.169000
     47 H33          0.8160     6.9740    -6.4310 hn         1 M4M       0.484467
@<TRIPOS>BOND
     1     1     5 ar
     2     1    15 ar
     3     1    32 1
     4     2    21 1
     5     3    17 2
     6     4     7 1
     7     4    11 1
     8     4    13 1
     9     4    22 1
    10     5     9 ar
    11     6    24 1
    12     6    25 1
    13     8    10 1
    14     8    16 2
    15     8    20 2
    16     8    28 1
    17     9    12 ar
    18    12    14 ar
    19    14    15 ar
    20    15    17 1
    21    17    19 1
    22    18    32 2
    23    19    21 ar
    24    19    31 ar
    25    21    22 ar
    26    22    23 ar
    27    23    24 ar
    28    24    31 ar
    29    25    26 ar
    30    25    30 ar
    31    26    27 ar
    32    27    28 ar
    33    28    29 ar
    34    29    30 ar
    35    31    32 1
    36     2    33 1
    37     2    34 1
    38     5    35 1
    39     6    36 1
    40     9    37 1
    41    10    38 1
    42    10    39 1
    43    12    40 1
    44    14    41 1
    45    23    42 1
    46    26    43 1
    47    27    44 1
    48    29    45 1
    49    30    46 1
    50    47    10 1
@<TRIPOS>SUBSTRUCTURE
     1 M4M         1 TEMP              0 ****  ****    0 ROOT
