@<TRIPOS>MOLECULE
molecule
   51    53     1     0     0
SMALL
bcc


@<TRIPOS>ATOM
      1 N28         -1.2950     0.0200    -2.2170 n1         1 M4R      -0.369800
      2 C27         -0.7200     0.0010    -1.2380 cg         1 M4R       0.244800
      3 C23          0.0000     0.0000     0.0000 ca         1 M4R       0.012000
      4 C24          1.3960     0.0000     0.0000 ca         1 M4R      -0.097000
      5 C25          2.0860     0.0000     1.1940 ca         1 M4R      -0.039300
      6 C29          3.5930    -0.0000     1.1930 c3         1 M4R      -0.025100
      7 C30          4.1030     1.4420     1.1910 c3         1 M4R       0.161500
      8 C31          5.6280     1.4440     1.3140 c3         1 M4R      -0.128100
      9 N32          3.7120     2.0980    -0.0640 n7         1 M4R      -0.816200
     10 C33          3.6350     3.5560     0.1070 c3         1 M4R       0.147100
     11 C22         -0.6920     0.0060     1.2120 ca         1 M4R      -0.194000
     12 C21          0.0100     0.0070     2.4050 ca         1 M4R       0.138100
     13 C26          1.3980     0.0000     2.3950 ca         1 M4R      -0.141000
     14 O13         -0.6590     0.0120     3.5880 os         1 M4R      -0.322900
     15 C12         -2.0880     0.0180     3.5250 c3         1 M4R       0.184700
     16 C08         -2.6520     0.0250     4.9210 ca         1 M4R      -0.087300
     17 C09         -2.8970     1.2120     5.5400 ca         1 M4R      -0.136300
     18 C07         -2.9190    -1.1840     5.5590 ca         1 M4R      -0.112000
     19 C06         -3.4350    -1.2120     6.8190 ca         1 M4R      -0.111000
     20 C05         -3.7010    -0.0060     7.4860 ca         1 M4R      -0.154300
     21 C04         -4.2350     0.0060     8.7910 ca         1 M4R      -0.035300
     22 C11         -4.5370    -1.2800     9.5140 c3         1 M4R      -0.051800
     23 C03         -4.4700     1.2110     9.3820 ca         1 M4R      -0.254300
     24 C02         -4.1800     2.3970     8.6900 ca         1 M4R       0.693200
     25 N02         -4.4240     3.6160     9.3040 nv         1 M4R      -1.085500
     26 N01         -3.6810     2.3780     7.4710 nb         1 M4R      -0.707000
     27 C10         -3.4240     1.2240     6.8420 ca         1 M4R       0.429600
     28 H1           1.9370    -0.0540    -0.9370 ha         1 M4R       0.148000
     29 H2           3.9530    -0.5120     0.3080 hc         1 M4R       0.053700
     30 H3           3.9550    -0.5100     2.0770 hc         1 M4R       0.053700
     31 H4           3.6720     1.9780     2.0280 h1         1 M4R       0.065700
     32 H5           6.0640     1.0360     0.4110 hc         1 M4R       0.039367
     33 H6           5.9220     0.8380     2.1630 hc         1 M4R       0.039367
     34 H7           5.9770     2.4600     1.4570 hc         1 M4R       0.039367
     35 H8           4.3810     1.8810    -0.7760 hn         1 M4R       0.352800
     36 H10          4.6330     3.9750     0.0880 h1         1 M4R       0.032367
     37 H11          3.0480     3.9830    -0.6980 h1         1 M4R       0.032367
     38 H12          3.1650     3.7840     1.0560 h1         1 M4R       0.032367
     39 H13         -1.7760     0.0110     1.2190 ha         1 M4R       0.143000
     40 H14          1.9450     0.0000     3.3300 ha         1 M4R       0.146000
     41 H15         -2.4300    -0.8660     3.0010 h1         1 M4R       0.044700
     42 H16         -2.4220     0.9030     2.9960 h1         1 M4R       0.044700
     43 H17         -2.7710     2.1420     4.9980 ha         1 M4R       0.153000
     44 H18         -2.7140    -2.1150     5.0450 ha         1 M4R       0.134000
     45 H19         -3.6390    -2.1590     7.3040 ha         1 M4R       0.136000
     46 H20         -4.9310    -1.0580    10.4990 hc         1 M4R       0.049367
     47 H21         -5.2700    -1.8470     8.9530 hc         1 M4R       0.049367
     48 H22         -3.6280    -1.8620     9.6120 hc         1 M4R       0.049367
     49 H23         -4.9370     1.2550    10.3580 ha         1 M4R       0.144000
     50 H24         -5.3020     4.0770     9.1690 hn         1 M4R       0.437300
     51 H25         -3.7120     4.0470     9.8600 hn         1 M4R       0.437300
@<TRIPOS>BOND
     1    22    21 1
     2    21    23 ar
     3    21    20 ar
     4    23    24 ar
     5    19    20 ar
     6    19    18 ar
     7    20    27 ar
     8    18    16 ar
     9    24    25 1
    10    24    26 ar
    11     1     2 3
    12    27    26 ar
    13    27    17 ar
    14     2     3 1
    15    11     3 ar
    16    11    12 ar
    17    16    17 ar
    18    16    15 1
    19    14    12 1
    20    14    15 1
    21     3     4 ar
    22    12    13 ar
    23     4     5 ar
    24    13     5 ar
    25     8     7 1
    26     5     6 1
    27     7     6 1
    28     7     9 1
    29    10     9 1
    30     4    28 1
    31     6    29 1
    32     6    30 1
    33     7    31 1
    34     8    32 1
    35     8    33 1
    36     8    34 1
    37     9    35 1
    38    10    36 1
    39    10    37 1
    40    10    38 1
    41    11    39 1
    42    13    40 1
    43    15    41 1
    44    15    42 1
    45    17    43 1
    46    18    44 1
    47    19    45 1
    48    22    46 1
    49    22    47 1
    50    22    48 1
    51    23    49 1
    52    25    50 1
    53    25    51 1
@<TRIPOS>SUBSTRUCTURE
     1 M4R         1 TEMP              0 ****  ****    0 ROOT
