@<TRIPOS>MOLECULE
M4R
   51    53     1     0     0
SMALL
bcc


@<TRIPOS>ATOM
      1 N28         -1.2950     0.0200    -2.2170 n1         1 M4R      -0.388800
      2 C27         -0.7200     0.0010    -1.2380 cg         1 M4R       0.236800
      3 C23          0.0000     0.0000     0.0000 ca         1 M4R       0.066000
      4 C24          1.3960     0.0000     0.0000 ca         1 M4R      -0.089000
      5 C25          2.0860     0.0000     1.1940 ca         1 M4R      -0.039300
      6 C29          3.5930    -0.0000     1.1930 c3         1 M4R       0.033900
      7 C30          4.1030     1.4420     1.1910 c3         1 M4R       0.113500
      8 C31          5.6280     1.4440     1.3140 c3         1 M4R      -0.030100
      9 N32          3.7120     2.0980    -0.0640 n7         1 M4R      -0.587200
     10 C33          3.6350     3.5560     0.1070 c3         1 M4R       0.176100
     11 C22         -0.6920     0.0060     1.2120 ca         1 M4R      -0.193000
     12 C21          0.0100     0.0070     2.4050 ca         1 M4R       0.152100
     13 C26          1.3980     0.0000     2.3950 ca         1 M4R      -0.126000
     14 O13         -0.6590     0.0120     3.5880 os         1 M4R      -0.299900
     15 C12         -2.0880     0.0180     3.5250 c3         1 M4R       0.259700
     16 C08         -2.6520     0.0250     4.9210 ca         1 M4R      -0.108300
     17 C09         -2.8970     1.2120     5.5400 ca         1 M4R      -0.111300
     18 C07         -2.9190    -1.1840     5.5590 ca         1 M4R      -0.080000
     19 C06         -3.4350    -1.2120     6.8190 ca         1 M4R      -0.089000
     20 C05         -3.7010    -0.0060     7.4860 ca         1 M4R      -0.142300
     21 C04         -4.2350     0.0060     8.7910 ca         1 M4R      -0.043300
     22 C11         -4.5370    -1.2800     9.5140 c3         1 M4R       0.058200
     23 C03         -4.4700     1.2110     9.3820 ca         1 M4R      -0.223300
     24 C02         -4.1800     2.3970     8.6900 ca         1 M4R       0.508200
     25 N02         -4.4240     3.6160     9.3040 nv         1 M4R      -0.662500
     26 N01         -3.6810     2.3780     7.4710 nb         1 M4R      -0.583000
     27 C10         -3.4240     1.2240     6.8420 ca         1 M4R       0.379600
     28 H1           1.9370    -0.0540    -0.9370 ha         1 M4R       0.122000
     29 H2           3.9530    -0.5120     0.3080 hc         1 M4R       0.023200
     30 H3           3.9550    -0.5100     2.0770 hc         1 M4R       0.023200
     31 H4           3.6720     1.9780     2.0280 h1         1 M4R       0.040700
     32 H5           6.0640     1.0360     0.4110 hc         1 M4R       0.009033
     33 H6           5.9220     0.8380     2.1630 hc         1 M4R       0.009033
     34 H7           5.9770     2.4600     1.4570 hc         1 M4R       0.009033
     35 H8           4.3810     1.8810    -0.7760 hn         1 M4R       0.256800
     36 H10          4.6330     3.9750     0.0880 h1         1 M4R       0.000033
     37 H11          3.0480     3.9830    -0.6980 h1         1 M4R       0.000033
     38 H12          3.1650     3.7840     1.0560 h1         1 M4R       0.000033
     39 H13         -1.7760     0.0110     1.2190 ha         1 M4R       0.129000
     40 H14          1.9450     0.0000     3.3300 ha         1 M4R       0.121000
     41 H15         -2.4300    -0.8660     3.0010 h1         1 M4R       0.007200
     42 H16         -2.4220     0.9030     2.9960 h1         1 M4R       0.007200
     43 H17         -2.7710     2.1420     4.9980 ha         1 M4R       0.121000
     44 H18         -2.7140    -2.1150     5.0450 ha         1 M4R       0.107000
     45 H19         -3.6390    -2.1590     7.3040 ha         1 M4R       0.113000
     46 H20         -4.9310    -1.0580    10.4990 hc         1 M4R       0.013367
     47 H21         -5.2700    -1.8470     8.9530 hc         1 M4R       0.013367
     48 H22         -3.6280    -1.8620     9.6120 hc         1 M4R       0.013367
     49 H23         -4.9370     1.2550    10.3580 ha         1 M4R       0.120000
     50 H24         -5.3020     4.0770     9.1690 hn         1 M4R       0.277300
     51 H25         -3.7120     4.0470     9.8600 hn         1 M4R       0.277300
@<TRIPOS>BOND
     1     1     2 3   
     2     2     3 1   
     3     3     4 ar  
     4     3    11 ar  
     5     4     5 ar  
     6     4    28 1   
     7     5     6 1   
     8     5    13 ar  
     9     6     7 1   
    10     6    29 1   
    11     6    30 1   
    12     7     8 1   
    13     7     9 1   
    14     7    31 1   
    15     8    32 1   
    16     8    33 1   
    17     8    34 1   
    18     9    10 1   
    19     9    35 1   
    20    10    36 1   
    21    10    37 1   
    22    10    38 1   
    23    11    12 ar  
    24    11    39 1   
    25    12    13 ar  
    26    12    14 1   
    27    13    40 1   
    28    14    15 1   
    29    15    16 1   
    30    15    41 1   
    31    15    42 1   
    32    16    17 ar  
    33    16    18 ar  
    34    17    27 ar  
    35    17    43 1   
    36    18    19 ar  
    37    18    44 1   
    38    19    20 ar  
    39    19    45 1   
    40    20    21 ar  
    41    20    27 ar  
    42    21    22 1   
    43    21    23 ar  
    44    22    46 1   
    45    22    47 1   
    46    22    48 1   
    47    23    24 ar  
    48    23    49 1   
    49    24    25 1   
    50    24    26 ar  
    51    25    50 1   
    52    25    51 1   
    53    26    27 ar  
@<TRIPOS>SUBSTRUCTURE
     1 M4R         1 TEMP              0 ****  ****    0 ROOT
