@<TRIPOS>MOLECULE
M4S
   22    22     1     0     0
SMALL
bcc


@<TRIPOS>ATOM
      1 C1           0.0000     0.0000     0.0000 ca         1 M4S       0.056000
      2 N1          -2.9430    -1.5830     1.1940 nz         1 M4S      -0.132500
      3 O1           3.4330     0.0000     1.2040 os         1 M4S      -0.280900
      4 S1          -2.4530    -0.0000     1.1950 sy         1 M4S       0.938200
      5 C2           1.3820     0.0000     0.0000 ca         1 M4S      -0.187500
      6 O2          -2.8530     0.5440    -0.0550 o          1 M4S      -0.498300
      7 C3           2.0750     0.0000     1.2020 ca         1 M4S       0.257100
      8 O3          -2.8570     0.5430     2.4440 o          1 M4S      -0.498300
      9 C4           1.3780     0.0010     2.4020 ca         1 M4S      -0.187500
     10 C5          -0.6920    -0.0000     1.1980 ca         1 M4S      -0.278500
     11 C6           4.0810     0.0010     2.4780 c3         1 M4S       0.243700
     12 C7          -0.0040    -0.0000     2.3970 ca         1 M4S       0.056000
     13 H1          -0.5420     0.0000    -0.9380 ha         1 M4S       0.124000
     14 HN1         -2.5900    -2.0410     0.3770 hn         1 M4S       0.312467
     15 HN1A        -2.5920    -2.0410     2.0120 hn         1 M4S       0.312467
     16 H2           1.9240     0.0000    -0.9380 ha         1 M4S       0.146000
     17 H4           1.9160     0.0010     3.3410 ha         1 M4S       0.146000
     18 H6           3.7890     0.8850     3.0310 h1         1 M4S       0.011700
     19 H6A          5.1550     0.0000     2.3380 h1         1 M4S       0.011700
     20 H6B          3.7890    -0.8840     3.0320 h1         1 M4S       0.011700
     21 H7          -0.5480     0.0000     3.3330 ha         1 M4S       0.124000
     22 H13         -3.9420    -1.6230     1.1460 hn         1 M4S       0.312467
@<TRIPOS>BOND
     1     1     5 ar  
     2     1    10 ar  
     3     1    13 1   
     4     2     4 1   
     5     2    14 1   
     6     2    15 1   
     7     2    22 1   
     8     3     7 1   
     9     3    11 1   
    10     4     6 2   
    11     4     8 2   
    12     4    10 1   
    13     5     7 ar  
    14     5    16 1   
    15     7     9 ar  
    16     9    12 ar  
    17     9    17 1   
    18    10    12 ar  
    19    11    18 1   
    20    11    19 1   
    21    11    20 1   
    22    12    21 1   
@<TRIPOS>SUBSTRUCTURE
     1 M4S         1 TEMP              0 ****  ****    0 ROOT
