@<TRIPOS>MOLECULE
molecule
   22    22     1     0     0
SMALL
bcc


@<TRIPOS>ATOM
      1 C1           0.0000     0.0000     0.0000 ca         1 M4S       0.009000
      2 N1          -2.9430    -1.5830     1.1940 nz         1 M4S      -0.806500
      3 O1           3.4330     0.0000     1.2040 os         1 M4S      -0.293900
      4 S1          -2.4530    -0.0000     1.1950 sy         1 M4S       1.229200
      5 C2           1.3820     0.0000     0.0000 ca         1 M4S      -0.196000
      6 O2          -2.8530     0.5440    -0.0550 o          1 M4S      -0.522800
      7 C3           2.0750     0.0000     1.2020 ca         1 M4S       0.243100
      8 O3          -2.8570     0.5430     2.4440 o          1 M4S      -0.522800
      9 C4           1.3780     0.0010     2.4020 ca         1 M4S      -0.196000
     10 C5          -0.6920    -0.0000     1.1980 ca         1 M4S      -0.388500
     11 C6           4.0810     0.0010     2.4780 c3         1 M4S       0.116700
     12 C7          -0.0040    -0.0000     2.3970 ca         1 M4S       0.009000
     13 H1          -0.5420     0.0000    -0.9380 ha         1 M4S       0.157500
     14 HN1         -2.5900    -2.0410     0.3770 hn         1 M4S       0.490800
     15 HN1A        -2.5920    -2.0410     2.0120 hn         1 M4S       0.490800
     16 H2           1.9240     0.0000    -0.9380 ha         1 M4S       0.173500
     17 H4           1.9160     0.0010     3.3410 ha         1 M4S       0.173500
     18 H6           3.7890     0.8850     3.0310 h1         1 M4S       0.061367
     19 H6A          5.1550     0.0000     2.3380 h1         1 M4S       0.061367
     20 H6B          3.7890    -0.8840     3.0320 h1         1 M4S       0.061367
     21 H7          -0.5480     0.0000     3.3330 ha         1 M4S       0.157500
     22 H13         -3.9420    -1.6230     1.1460 hn         1 M4S       0.490800
@<TRIPOS>BOND
     1     1     5 ar
     2     1    10 ar
     3     2     4 1
     4     3     7 1
     5     3    11 1
     6     4     6 2
     7     4     8 2
     8     4    10 1
     9     5     7 ar
    10     7     9 ar
    11     9    12 ar
    12    10    12 ar
    13     1    13 1
    14     2    14 1
    15     2    15 1
    16     5    16 1
    17     9    17 1
    18    11    18 1
    19    11    19 1
    20    11    20 1
    21    12    21 1
    22    22     2 1
@<TRIPOS>SUBSTRUCTURE
     1 M4S         1 TEMP              0 ****  ****    0 ROOT
