@<TRIPOS>MOLECULE
molecule
   38    41     1     0     0
SMALL
bcc


@<TRIPOS>ATOM
      1 NAA          0.0000     0.0000     0.0000 nz         1 M4V      -0.724600
      2 OAB          3.9870    -0.0010    -2.2810 o          1 M4V      -0.552500
      3 CAD          8.8300     0.0030    -2.2520 ca         1 M4V      -0.104000
      4 CAE          8.5860    -1.0980    -1.4510 ca         1 M4V      -0.124000
      5 CAF          7.9930     1.1030    -2.2000 ca         1 M4V      -0.124000
      6 CAG          7.5050    -1.1060    -0.5930 ca         1 M4V      -0.098000
      7 CAH          6.9090     1.1090    -1.3470 ca         1 M4V      -0.098000
      8 CAI          8.0120    -0.8800     4.4360 ca         1 M4V      -0.099500
      9 CAJ          8.9340     0.8750     3.0790 ca         1 M4V      -0.099500
     10 CAK          6.8680    -0.8840     3.6660 ca         1 M4V      -0.095000
     11 CAL          7.7950     0.8820     2.3020 ca         1 M4V      -0.095000
     12 NAM          2.0080     0.0000     1.1490 nc         1 M4V      -0.559100
     13 NAN          2.0310     0.0000    -1.1930 ns         1 M4V      -0.469400
     14 NAO          4.2380     0.0000     2.2400 na         1 M4V      -0.117100
     15 CAP          9.0430    -0.0020     4.1450 ca         1 M4V       0.004100
     16 CAQ          1.3720     0.0000     0.0000 cd         1 M4V       0.438800
     17 CAR          6.7510     0.0000     2.5900 ca         1 M4V      -0.060000
     18 CAS          6.6570     0.0010    -0.5360 ca         1 M4V      -0.050000
     19 CAT          5.5290     0.0010     1.7610 cc         1 M4V       0.033700
     20 CAU          5.4960     0.0010     0.3820 cd         1 M4V      -0.009000
     21 CAV          3.3830    -0.0000    -1.2220 c          1 M4V       0.730100
     22 CAW          3.3480     0.0000     1.2050 cc         1 M4V       0.127100
     23 CAX          4.0780     0.0010     0.0070 cd         1 M4V      -0.189600
     24 HNAA        -0.3340    -0.8180    -0.4710 hn         1 M4V       0.474800
     25 HNAB        -0.3340     0.0010     0.9440 hn         1 M4V       0.474800
     26 HAD          9.6800     0.0030    -2.9240 ha         1 M4V       0.142000
     27 HAE          9.2460    -1.9560    -1.4970 ha         1 M4V       0.141500
     28 HAF          8.1890     1.9620    -2.8300 ha         1 M4V       0.141500
     29 HAG          7.3160    -1.9680     0.0340 ha         1 M4V       0.133500
     30 HAH          6.2540     1.9710    -1.3070 ha         1 M4V       0.133500
     31 HAI          8.1050    -1.5640     5.2700 ha         1 M4V       0.159500
     32 HAJ          9.7440     1.5590     2.8550 ha         1 M4V       0.159500
     33 HAK          6.0620    -1.5700     3.8960 ha         1 M4V       0.144500
     34 HAL          7.7100     1.5690     1.4680 ha         1 M4V       0.144500
     35 HNAN         1.5140     0.0000    -2.0500 hn         1 M4V       0.343500
     36 HNAO         3.9880     0.0000     3.2090 hn         1 M4V       0.324700
     37 HAA3        -0.3340     0.8170    -0.4720 hn         1 M4V       0.474800
     38 Br          10.6100    -0.0040     5.2050 br         1 M4V      -0.055100
@<TRIPOS>BOND
     1     1    16 1
     2     2    21 2
     3    38    15 1
     4     3     4 ar
     5     3     5 ar
     6     4     6 ar
     7     5     7 ar
     8     6    18 ar
     9     7    18 ar
    10     8    10 ar
    11     8    15 ar
    12     9    11 ar
    13     9    15 ar
    14    10    17 ar
    15    11    17 ar
    16    12    16 2
    17    12    22 1
    18    13    16 1
    19    13    21 1
    20    14    19 1
    21    14    22 1
    22    17    19 1
    23    18    20 1
    24    19    20 2
    25    20    23 1
    26    21    23 1
    27    22    23 2
    28     1    24 1
    29     1    25 1
    30     3    26 1
    31     4    27 1
    32     5    28 1
    33     6    29 1
    34     7    30 1
    35     8    31 1
    36     9    32 1
    37    10    33 1
    38    11    34 1
    39    13    35 1
    40    14    36 1
    41    37     1 1
@<TRIPOS>SUBSTRUCTURE
     1 M4V         1 TEMP              0 ****  ****    0 ROOT
