@<TRIPOS>MOLECULE
M4V
   38    41     1     0     0
SMALL
bcc


@<TRIPOS>ATOM
      1 NAA          0.0000     0.0000     0.0000 nz         1 M4V       0.227400
      2 OAB          3.9870    -0.0010    -2.2810 o          1 M4V      -0.594500
      3 CAD          8.8300     0.0030    -2.2520 ca         1 M4V      -0.075000
      4 CAE          8.5860    -1.0980    -1.4510 ca         1 M4V      -0.094500
      5 CAF          7.9930     1.1030    -2.2000 ca         1 M4V      -0.094500
      6 CAG          7.5050    -1.1060    -0.5930 ca         1 M4V      -0.073000
      7 CAH          6.9090     1.1090    -1.3470 ca         1 M4V      -0.073000
      8 CAI          8.0120    -0.8800     4.4360 ca         1 M4V      -0.072500
      9 CAJ          8.9340     0.8750     3.0790 ca         1 M4V      -0.072500
     10 CAK          6.8680    -0.8840     3.6660 ca         1 M4V      -0.073000
     11 CAL          7.7950     0.8820     2.3020 ca         1 M4V      -0.073000
     12 NAM          2.0080     0.0000     1.1490 nc         1 M4V      -0.346100
     13 NAN          2.0310     0.0000    -1.1930 ns         1 M4V      -0.007400
     14 NAO          4.2380     0.0000     2.2400 na         1 M4V       0.478900
     15 CAP          9.0430    -0.0020     4.1450 ca         1 M4V       0.045100
     16 CAQ          1.3720     0.0000     0.0000 cd         1 M4V      -0.038200
     17 CAR          6.7510     0.0000     2.5900 ca         1 M4V      -0.057000
     18 CAS          6.6570     0.0010    -0.5360 ca         1 M4V      -0.050000
     19 CAT          5.5290     0.0010     1.7610 cc         1 M4V      -0.168300
     20 CAU          5.4960     0.0010     0.3820 cd         1 M4V       0.034000
     21 CAV          3.3830    -0.0000    -1.2220 c          1 M4V       0.641100
     22 CAW          3.3480     0.0000     1.2050 cc         1 M4V      -0.157900
     23 CAX          4.0780     0.0010     0.0070 cd         1 M4V      -0.198600
     24 HNAA        -0.3340    -0.8180    -0.4710 hn         1 M4V       0.212800
     25 HNAB        -0.3340     0.0010     0.9440 hn         1 M4V       0.212800
     26 HAD          9.6800     0.0030    -2.9240 ha         1 M4V       0.111000
     27 HAE          9.2460    -1.9560    -1.4970 ha         1 M4V       0.111500
     28 HAF          8.1890     1.9620    -2.8300 ha         1 M4V       0.111500
     29 HAG          7.3160    -1.9680     0.0340 ha         1 M4V       0.104500
     30 HAH          6.2540     1.9710    -1.3070 ha         1 M4V       0.104500
     31 HAI          8.1050    -1.5640     5.2700 ha         1 M4V       0.128000
     32 HAJ          9.7440     1.5590     2.8550 ha         1 M4V       0.128000
     33 HAK          6.0620    -1.5700     3.8960 ha         1 M4V       0.112500
     34 HAL          7.7100     1.5690     1.4680 ha         1 M4V       0.112500
     35 HNAN         1.5140     0.0000    -2.0500 hn         1 M4V       0.185500
     36 HNAO         3.9880     0.0000     3.2090 hn         1 M4V       0.128700
     37 HAA3        -0.3340     0.8170    -0.4720 hn         1 M4V       0.212800
     38 Br          10.6100    -0.0040     5.2050 br         1 M4V      -0.083100
@<TRIPOS>BOND
     1     1    16 1   
     2     1    24 1   
     3     1    25 1   
     4     1    37 1   
     5     2    21 2   
     6     3     4 ar  
     7     3     5 ar  
     8     3    26 1   
     9     4     6 ar  
    10     4    27 1   
    11     5     7 ar  
    12     5    28 1   
    13     6    18 ar  
    14     6    29 1   
    15     7    18 ar  
    16     7    30 1   
    17     8    10 ar  
    18     8    15 ar  
    19     8    31 1   
    20     9    11 ar  
    21     9    15 ar  
    22     9    32 1   
    23    10    17 ar  
    24    10    33 1   
    25    11    17 ar  
    26    11    34 1   
    27    12    16 2   
    28    12    22 1   
    29    13    16 1   
    30    13    21 1   
    31    13    35 1   
    32    14    19 1   
    33    14    22 1   
    34    14    36 1   
    35    15    38 1   
    36    17    19 1   
    37    18    20 1   
    38    19    20 2   
    39    20    23 1   
    40    21    23 1   
    41    22    23 2   
@<TRIPOS>SUBSTRUCTURE
     1 M4V         1 TEMP              0 ****  ****    0 ROOT
