@<TRIPOS>MOLECULE
M4Z
   70    72     1     0     0
SMALL
bcc


@<TRIPOS>ATOM
      1 C1           0.0000     0.0000     0.0000 c3         1 M4Z      -0.037700
      2 C2           1.5300     0.0000     0.0000 c3         1 M4Z      -0.042400
      3 C3           2.0400     0.0000     1.4430 c3         1 M4Z      -0.020900
      4 C4           1.5300     1.2500     2.1630 c3         1 M4Z      -0.026400
      5 C5           0.0000     1.2500     2.1630 c3         1 M4Z      -0.020900
      6 C6          -0.5090     1.2500     0.7210 c3         1 M4Z      -0.042400
      7 N7          -1.9730    -0.1380    -1.4440 n7         1 M4Z      -0.530200
      8 C8          -0.5100    -0.0010    -1.4420 c3         1 M4Z       0.052500
      9 C9          -0.1270     1.2940    -2.1110 c          1 M4Z       0.622100
     10 O0          -0.9070     2.2220    -2.1280 o          1 M4Z      -0.574100
     11 N11          1.0840     1.4200    -2.6900 nj         1 M4Z      -0.190800
     12 C12          1.8340     2.4980    -3.3510 cy         1 M4Z      -0.033300
     13 C13          0.9730     3.3920    -4.2080 c          1 M4Z       0.558100
     14 O14         -0.2190     3.1810    -4.2950 o          1 M4Z      -0.569100
     15 N15          1.5260     4.4230    -4.8750 ns         1 M4Z      -0.220900
     16 C16          0.6880     5.2920    -5.7070 c3         1 M4Z       0.102300
     17 C17          1.5440     6.3590    -6.3380 ca         1 M4Z      -0.053300
     18 C22          1.7430     7.5600    -5.6820 ca         1 M4Z      -0.055500
     19 C21          2.5250     8.5410    -6.2550 ca         1 M4Z      -0.073500
     20 C20          3.1150     8.3210    -7.4990 ca         1 M4Z      -0.230900
     21 C19          2.9100     7.1090    -8.1560 ca         1 M4Z      -0.073500
     22 C18          2.1310     6.1330    -7.5700 ca         1 M4Z      -0.055500
     23 C23          3.9560     9.3700    -8.1210 ce         1 M4Z       0.211800
     24 N24          4.1450    10.5020    -7.5050 n2         1 M4Z      -0.487100
     25 N25          4.5370     9.1500    -9.3500 nz         1 M4Z       0.190400
     26 C26          2.5770     1.4190    -4.1500 cy         1 M4Z      -0.058400
     27 C27          2.2390     0.5420    -2.9320 cy         1 M4Z       0.048000
     28 C28         -2.3700    -1.5430    -1.2800 c3         1 M4Z       0.065800
     29 C10         -6.3270    -4.4450    -1.2650 c3         1 M4Z      -0.007100
     30 C29         -3.8650    -1.6620    -1.4170 c          1 M4Z       0.564100
     31 O30         -4.5360    -0.6730    -1.6300 o          1 M4Z      -0.625100
     32 C24         -5.9140    -2.9820    -1.4360 c3         1 M4Z       0.052000
     33 N3          -4.4600    -2.8660    -1.3030 ns         1 M4Z      -0.204900
     34 H1          -0.3590    -0.8830     0.5150 hc         1 M4Z       0.038700
     35 H21C         1.8890    -0.8860    -0.5090 hc         1 M4Z       0.025700
     36 H22C         1.8890     0.8860    -0.5090 hc         1 M4Z       0.025700
     37 H61C        -1.5930     1.2480     0.7220 hc         1 M4Z       0.025700
     38 H62C        -0.1450     2.1330     0.2110 hc         1 M4Z       0.025700
     39 H8          -0.0690    -0.8300    -1.9810 h1         1 M4Z       0.009700
     40 H31C         1.6760    -0.8830     1.9540 hc         1 M4Z       0.014450
     41 H32C         3.1230     0.0020     1.4420 hc         1 M4Z       0.014450
     42 H41C         1.8890     2.1330     1.6500 hc         1 M4Z       0.011700
     43 H42C         1.8890     1.2480     3.1850 hc         1 M4Z       0.011700
     44 H51C        -0.3600     0.3640     2.6720 hc         1 M4Z       0.014450
     45 H52C        -0.3600     2.1360     2.6720 hc         1 M4Z       0.014450
     46 H7          -2.3400     0.2130    -2.3070 hn         1 M4Z       0.288800
     47 H281        -1.8880    -2.1460    -2.0400 h1         1 M4Z       0.017200
     48 H282        -2.0680    -1.8910    -0.2990 h1         1 M4Z       0.017200
     49 H12          2.4840     3.0330    -2.6690 h1         1 M4Z       0.045700
     50 H271         1.9520    -0.4660    -3.2050 h1         1 M4Z       0.032700
     51 H272         2.9850     0.6010    -2.1490 h1         1 M4Z       0.032700
     52 H261         3.6370     1.6150    -4.2600 hc         1 M4Z       0.038700
     53 H262         2.0620     1.1190    -5.0550 hc         1 M4Z       0.038700
     54 H15          2.5040     4.6120    -4.7820 hn         1 M4Z       0.170500
     55 H161         0.2150     4.7020    -6.4830 h1         1 M4Z       0.043700
     56 H162        -0.0730     5.7560    -5.0920 h1         1 M4Z       0.043700
     57 H18          1.9710     5.1900    -8.0800 ha         1 M4Z       0.133500
     58 H22          1.2840     7.7300    -4.7150 ha         1 M4Z       0.133500
     59 H19          3.3680     6.9310    -9.1220 ha         1 M4Z       0.099000
     60 H21          2.6800     9.4810    -5.7390 ha         1 M4Z       0.099000
     61 H24          3.7240    10.6640    -6.6110 hn         1 M4Z       0.382400
     62 H251         5.1450     8.3560    -9.2940 hn         1 M4Z       0.222133
     63 H252         3.8240     8.9770   -10.0300 hn         1 M4Z       0.222133
     64 H101        -7.4030    -4.5300    -1.3630 hc         1 M4Z       0.008367
     65 H102        -5.8460    -5.0470    -2.0250 hc         1 M4Z       0.008367
     66 H103        -6.0260    -4.7930    -0.2840 hc         1 M4Z       0.008367
     67 H241        -6.2150    -2.6340    -2.4170 h1         1 M4Z       0.026200
     68 H242        -6.3950    -2.3790    -0.6750 h1         1 M4Z       0.026200
     69 H3          -3.9070    -3.6820    -1.1260 hn         1 M4Z       0.171500
     70 H253         5.0610     9.9580    -9.6210 hn         1 M4Z       0.222133
@<TRIPOS>BOND
     1     1     2 1   
     2     1     6 1   
     3     1     8 1   
     4     1    34 1   
     5     2     3 1   
     6     2    35 1   
     7     2    36 1   
     8     3     4 1   
     9     3    40 1   
    10     3    41 1   
    11     4     5 1   
    12     4    42 1   
    13     4    43 1   
    14     5     6 1   
    15     5    44 1   
    16     5    45 1   
    17     6    37 1   
    18     6    38 1   
    19     7     8 1   
    20     7    28 1   
    21     7    46 1   
    22     8     9 1   
    23     8    39 1   
    24     9    10 2   
    25     9    11 1   
    26    11    12 1   
    27    11    27 1   
    28    12    13 1   
    29    12    26 1   
    30    12    49 1   
    31    13    14 2   
    32    13    15 1   
    33    15    16 1   
    34    15    54 1   
    35    16    17 1   
    36    16    55 1   
    37    16    56 1   
    38    17    18 ar  
    39    17    22 ar  
    40    18    19 ar  
    41    18    58 1   
    42    19    20 ar  
    43    19    60 1   
    44    20    21 ar  
    45    20    23 1   
    46    21    22 ar  
    47    21    59 1   
    48    22    57 1   
    49    23    24 2   
    50    23    25 1   
    51    24    61 1   
    52    25    62 1   
    53    25    63 1   
    54    25    70 1   
    55    26    27 1   
    56    26    52 1   
    57    26    53 1   
    58    27    50 1   
    59    27    51 1   
    60    28    30 1   
    61    28    47 1   
    62    28    48 1   
    63    29    32 1   
    64    29    64 1   
    65    29    65 1   
    66    29    66 1   
    67    30    31 2   
    68    30    33 1   
    69    32    33 1   
    70    32    67 1   
    71    32    68 1   
    72    33    69 1   
@<TRIPOS>SUBSTRUCTURE
     1 M4Z         1 TEMP              0 ****  ****    0 ROOT
