@<TRIPOS>MOLECULE
molecule
   70    72     1     0     0
SMALL
bcc


@<TRIPOS>ATOM
      1 C1           0.0000     0.0000     0.0000 c3         1 M4Z      -0.053700
      2 C2           1.5300     0.0000     0.0000 c3         1 M4Z      -0.081400
      3 C3           2.0400     0.0000     1.4430 c3         1 M4Z      -0.078900
      4 C4           1.5300     1.2500     2.1630 c3         1 M4Z      -0.081400
      5 C5           0.0000     1.2500     2.1630 c3         1 M4Z      -0.078900
      6 C6          -0.5090     1.2500     0.7210 c3         1 M4Z      -0.081400
      7 N7          -1.9730    -0.1380    -1.4440 n7         1 M4Z      -0.774200
      8 C8          -0.5100    -0.0010    -1.4420 c3         1 M4Z       0.108500
      9 C9          -0.1270     1.2940    -2.1110 c          1 M4Z       0.689100
     10 O0          -0.9070     2.2220    -2.1280 o          1 M4Z      -0.539100
     11 N11          1.0840     1.4200    -2.6900 nj         1 M4Z      -0.510800
     12 C12          1.8340     2.4980    -3.3510 cy         1 M4Z       0.037700
     13 C13          0.9730     3.3920    -4.2080 c          1 M4Z       0.645100
     14 O14         -0.2190     3.1810    -4.2950 o          1 M4Z      -0.535100
     15 N15          1.5260     4.4230    -4.8750 ns         1 M4Z      -0.601900
     16 C16          0.6880     5.2920    -5.7070 c3         1 M4Z       0.152300
     17 C17          1.5440     6.3590    -6.3380 ca         1 M4Z      -0.048300
     18 C22          1.7430     7.5600    -5.6820 ca         1 M4Z      -0.102000
     19 C21          2.5250     8.5410    -6.2550 ca         1 M4Z      -0.086500
     20 C20          3.1150     8.3210    -7.4990 ca         1 M4Z      -0.195900
     21 C19          2.9100     7.1090    -8.1560 ca         1 M4Z      -0.086500
     22 C18          2.1310     6.1330    -7.5700 ca         1 M4Z      -0.102000
     23 C23          3.9560     9.3700    -8.1210 ce         1 M4Z       0.542800
     24 N24          4.1450    10.5020    -7.5050 n2         1 M4Z      -0.681100
     25 N25          4.5370     9.1500    -9.3500 nz         1 M4Z      -0.801600
     26 C26          2.5770     1.4190    -4.1500 cy         1 M4Z      -0.119400
     27 C27          2.2390     0.5420    -2.9320 cy         1 M4Z       0.094000
     28 C28         -2.3700    -1.5430    -1.2800 c3         1 M4Z       0.080800
     29 C10         -6.3270    -4.4450    -1.2650 c3         1 M4Z      -0.113100
     30 C29         -3.8650    -1.6620    -1.4170 c          1 M4Z       0.651100
     31 O30         -4.5360    -0.6730    -1.6300 o          1 M4Z      -0.584100
     32 C24         -5.9140    -2.9820    -1.4360 c3         1 M4Z       0.111000
     33 N3          -4.4600    -2.8660    -1.3030 ns         1 M4Z      -0.591900
     34 H1          -0.3590    -0.8830     0.5150 hc         1 M4Z       0.061700
     35 H21C         1.8890    -0.8860    -0.5090 hc         1 M4Z       0.050200
     36 H22C         1.8890     0.8860    -0.5090 hc         1 M4Z       0.050200
     37 H61C        -1.5930     1.2480     0.7220 hc         1 M4Z       0.050200
     38 H62C        -0.1450     2.1330     0.2110 hc         1 M4Z       0.050200
     39 H8          -0.0690    -0.8300    -1.9810 h1         1 M4Z       0.025700
     40 H31C         1.6760    -0.8830     1.9540 hc         1 M4Z       0.042450
     41 H32C         3.1230     0.0020     1.4420 hc         1 M4Z       0.042450
     42 H41C         1.8890     1.2480     3.1850 hc         1 M4Z       0.039700
     43 H42C         1.8890     2.1330     1.6500 hc         1 M4Z       0.039700
     44 H51C        -0.3600     2.1360     2.6720 hc         1 M4Z       0.042450
     45 H52C        -0.3600     0.3640     2.6720 hc         1 M4Z       0.042450
     46 H7          -2.3400     0.2130    -2.3070 hn         1 M4Z       0.390800
     47 H281        -1.8880    -2.1460    -2.0400 h1         1 M4Z       0.046700
     48 H282        -2.0680    -1.8910    -0.2990 h1         1 M4Z       0.046700
     49 H12          2.4840     3.0330    -2.6690 h1         1 M4Z       0.075700
     50 H271         2.9850     0.6010    -2.1490 h1         1 M4Z       0.062700
     51 H272         1.9520    -0.4660    -3.2050 h1         1 M4Z       0.062700
     52 H261         2.0620     1.1190    -5.0550 hc         1 M4Z       0.070700
     53 H262         3.6370     1.6150    -4.2600 hc         1 M4Z       0.070700
     54 H15          2.5040     4.6120    -4.7820 hn         1 M4Z       0.309500
     55 H161        -0.0730     5.7560    -5.0920 h1         1 M4Z       0.076200
     56 H162         0.2150     4.7020    -6.4830 h1         1 M4Z       0.076200
     57 H18          1.9710     5.1900    -8.0800 ha         1 M4Z       0.168000
     58 H22          1.2840     7.7300    -4.7150 ha         1 M4Z       0.168000
     59 H19          3.3680     6.9310    -9.1220 ha         1 M4Z       0.139000
     60 H21          2.6810     9.4810    -5.7390 ha         1 M4Z       0.139000
     61 H24          4.7130    11.2120    -7.9230 hn         1 M4Z       0.433400
     62 H251         3.8240     8.9770   -10.0300 hn         1 M4Z       0.465133
     63 H252         5.0660     9.9560    -9.6190 hn         1 M4Z       0.465133
     64 H101        -7.4030    -4.5300    -1.3640 hc         1 M4Z       0.043367
     65 H102        -6.0260    -4.7930    -0.2840 hc         1 M4Z       0.043367
     66 H103        -5.8460    -5.0470    -2.0250 hc         1 M4Z       0.043367
     67 H241        -6.3950    -2.3790    -0.6750 h1         1 M4Z       0.054700
     68 H242        -6.2150    -2.6340    -2.4170 h1         1 M4Z       0.054700
     69 H3          -3.9070    -3.6820    -1.1260 hn         1 M4Z       0.310500
     70 H253         5.1500     8.3600    -9.2930 hn         1 M4Z       0.465133
@<TRIPOS>BOND
     1     1     2 1
     2     1     6 1
     3     1     8 1
     4     2     3 1
     5     3     4 1
     6     4     5 1
     7     5     6 1
     8     7     8 1
     9     7    28 1
    10     8     9 1
    11     9    10 2
    12     9    11 1
    13    11    12 1
    14    11    27 1
    15    12    13 1
    16    12    26 1
    17    13    14 2
    18    13    15 1
    19    15    16 1
    20    16    17 1
    21    17    22 ar
    22    17    18 ar
    23    22    21 ar
    24    21    20 ar
    25    20    19 ar
    26    20    23 1
    27    19    18 ar
    28    23    24 2
    29    23    25 1
    30    26    27 1
    31    28    30 1
    32    29    32 1
    33    30    31 2
    34    30    33 1
    35    32    33 1
    36     1    34 1
    37     2    35 1
    38     2    36 1
    39     6    37 1
    40     6    38 1
    41     8    39 1
    42     3    40 1
    43     3    41 1
    44     4    42 1
    45     4    43 1
    46     5    44 1
    47     5    45 1
    48     7    46 1
    49    28    47 1
    50    28    48 1
    51    12    49 1
    52    27    50 1
    53    27    51 1
    54    26    52 1
    55    26    53 1
    56    15    54 1
    57    16    55 1
    58    16    56 1
    59    22    57 1
    60    18    58 1
    61    21    59 1
    62    19    60 1
    63    24    61 1
    64    25    62 1
    65    25    63 1
    66    29    64 1
    67    29    65 1
    68    29    66 1
    69    32    67 1
    70    32    68 1
    71    33    69 1
    72    70    25 1
@<TRIPOS>SUBSTRUCTURE
     1 M4Z         1 TEMP              0 ****  ****    0 ROOT
