@<TRIPOS>MOLECULE
M51
   60    64     1     0     0
SMALL
bcc


@<TRIPOS>ATOM
      1 C1           0.0000     0.0000     0.0000 cc         1 M51      -0.353300
      2 C2           1.3970     0.0000     0.0000 cc         1 M51       0.372600
      3 N3           1.8120     0.0000     1.2420 nd         1 M51      -0.656800
      4 N4           0.6930    -0.0000     2.0820 na         1 M51       0.642300
      5 C5          -0.4190     0.0000     1.2960 cd         1 M51      -0.149700
      6 C6           0.7120    -0.0000     3.4840 ca         1 M51      -0.148200
      7 C7          -0.1900    -0.7830     4.1920 ca         1 M51      -0.084000
      8 C8          -0.1680    -0.7820     5.5740 ca         1 M51      -0.095500
      9 C9           0.7510    -0.0010     6.2500 ca         1 M51      -0.094000
     10 C10          1.6510     0.7810     5.5480 ca         1 M51      -0.095500
     11 C11          1.6370     0.7790     4.1670 ca         1 M51      -0.084000
     12 C12          2.2780    -0.0010    -1.2220 c3         1 M51      -0.004400
     13 N13         -1.7390     0.0010     1.7350 nh         1 M51      -0.375000
     14 C14         -2.4640    -1.1710     1.2250 c3         1 M51       0.149300
     15 C15         -3.8850    -1.1760     1.7940 c3         1 M51       0.144800
     16 N16         -4.5670     0.0690     1.4120 n3         1 M51      -0.526600
     17 C17         -3.8410     1.2410     1.9220 c3         1 M51       0.144800
     18 C18         -2.4200     1.2450     1.3540 c3         1 M51       0.149300
     19 C19         -5.9610     0.0700     1.8760 c3         1 M51       0.112500
     20 C20         -6.7510    -1.0900     1.2320 c3         1 M51       0.138800
     21 N21         -8.0940    -0.5770     0.9100 n7         1 M51      -0.533200
     22 C22         -8.1770     0.8350     1.3450 c3         1 M51       0.044500
     23 C23         -6.7090     1.3280     1.3640 c3         1 M51      -0.025400
     24 C24         -8.9880     1.6390     0.3630 c          1 M51       0.598100
     25 N25         -9.5030     2.8300     0.7310 n          1 M51      -0.178800
     26 C26        -10.2950     3.6500    -0.1730 c3         1 M51       0.052000
     27 C27        -10.7570     4.9810     0.4610 c3         1 M51       0.103700
     28 S28         -9.5040     5.2010     1.7930 ss         1 M51      -0.402200
     29 C29         -9.3120     3.3910     2.0820 c3         1 M51       0.165100
     30 O30         -9.1780     1.2170    -0.7580 o          1 M51      -0.595100
     31 H1          -0.6380     0.0000    -0.8760 ha         1 M51       0.143000
     32 H7          -0.9100    -1.3950     3.6620 ha         1 M51       0.122500
     33 H8          -0.8710    -1.3920     6.1270 ha         1 M51       0.106000
     34 H9           0.7650     0.0000     7.3340 ha         1 M51       0.103000
     35 H10          2.3700     1.3890     6.0820 ha         1 M51       0.106000
     36 H11          2.3410     1.3910     3.6170 ha         1 M51       0.122500
     37 H12          2.0200    -0.8440    -1.8520 hc         1 M51       0.011033
     38 H12A         3.3150    -0.0800    -0.9200 hc         1 M51       0.011033
     39 H12B         2.1320     0.9190    -1.7740 hc         1 M51       0.011033
     40 H14         -1.9500    -2.0750     1.5320 h1         1 M51       0.023700
     41 H14A        -2.5090    -1.1250     0.1440 h1         1 M51       0.023700
     42 H15         -3.8400    -1.2450     2.8740 h1         1 M51       0.017700
     43 H15A        -4.4300    -2.0220     1.3940 h1         1 M51       0.017700
     44 H17         -4.3540     2.1440     1.6150 h1         1 M51       0.017700
     45 H17A        -3.7960     1.1940     3.0030 h1         1 M51       0.017700
     46 H18         -1.8750     2.0910     1.7540 h1         1 M51       0.023700
     47 H18A        -2.4640     1.3150     0.2740 h1         1 M51       0.023700
     48 H19         -6.0120     0.0110     2.9570 h1         1 M51       0.012700
     49 H20         -6.2540    -1.4140     0.3260 h1         1 M51       0.024700
     50 H20A        -6.8300    -1.9140     1.9320 h1         1 M51       0.024700
     51 HN21        -8.7830    -1.1160     1.3950 hn         1 M51       0.247800
     52 H22         -8.6060     0.8960     2.3370 h1         1 M51       0.015700
     53 H23         -6.3780     1.5940     0.3670 hc         1 M51       0.039200
     54 H23A        -6.5890     2.1550     2.0540 hc         1 M51       0.039200
     55 H26        -11.1710     3.0870    -0.4740 h1         1 M51       0.035200
     56 H26A        -9.7000     3.8720    -1.0500 h1         1 M51       0.035200
     57 H27        -11.7520     4.8860     0.8780 h1         1 M51       0.054700
     58 H27A       -10.7040     5.7900    -0.2580 h1         1 M51       0.054700
     59 H29        -10.0760     3.0280     2.7590 h2         1 M51       0.049200
     60 H29A        -8.3200     3.1650     2.4540 h2         1 M51       0.049200
@<TRIPOS>BOND
     1     1     2 1   
     2     1     5 2   
     3     1    31 1   
     4     2     3 2   
     5     2    12 1   
     6     3     4 1   
     7     4     5 1   
     8     4     6 1   
     9     5    13 1   
    10     6     7 ar  
    11     6    11 ar  
    12     7     8 ar  
    13     7    32 1   
    14     8     9 ar  
    15     8    33 1   
    16     9    10 ar  
    17     9    34 1   
    18    10    11 ar  
    19    10    35 1   
    20    11    36 1   
    21    12    37 1   
    22    12    38 1   
    23    12    39 1   
    24    13    14 1   
    25    13    18 1   
    26    14    15 1   
    27    14    40 1   
    28    14    41 1   
    29    15    16 1   
    30    15    42 1   
    31    15    43 1   
    32    16    17 1   
    33    16    19 1   
    34    17    18 1   
    35    17    44 1   
    36    17    45 1   
    37    18    46 1   
    38    18    47 1   
    39    19    20 1   
    40    19    23 1   
    41    19    48 1   
    42    20    21 1   
    43    20    49 1   
    44    20    50 1   
    45    21    22 1   
    46    21    51 1   
    47    22    23 1   
    48    22    24 1   
    49    22    52 1   
    50    23    53 1   
    51    23    54 1   
    52    24    25 1   
    53    24    30 2   
    54    25    26 1   
    55    25    29 1   
    56    26    27 1   
    57    26    55 1   
    58    26    56 1   
    59    27    28 1   
    60    27    57 1   
    61    27    58 1   
    62    28    29 1   
    63    29    59 1   
    64    29    60 1   
@<TRIPOS>SUBSTRUCTURE
     1 M51         1 TEMP              0 ****  ****    0 ROOT
