@<TRIPOS>MOLECULE
M52
   42    43     1     0     0
SMALL
bcc


@<TRIPOS>ATOM
      1 C10          0.0000     0.0000     0.0000 c3         1 M52       0.165800
      2 C13          2.7870    -2.3420    -4.5050 ca         1 M52       0.517200
      3 C15          3.3700    -2.7230    -2.3050 ca         1 M52       0.608200
      4 C12          1.8700    -1.3770    -4.1360 ca         1 M52      -0.180200
      5 C14          1.7010    -1.0790    -2.7880 ca         1 M52       0.069000
      6 N03          3.5000    -2.9790    -3.5970 nb         1 M52      -0.651000
      7 N04          4.1440    -3.4190    -1.3830 nv         1 M52      -0.527500
      8 C11          2.4650    -1.7640    -1.8610 ca         1 M52      -0.332800
      9 S01          2.2940    -1.4270    -0.1400 sy         1 M52       1.064200
     10 O04          1.4430    -2.4370     0.3840 o          1 M52      -0.580300
     11 C09          2.1970     1.2630     0.1240 c3         1 M52       0.277100
     12 O03          3.6040    -1.1800     0.3530 o          1 M52      -0.580300
     13 N01          1.4640     0.0000     0.0000 n3         1 M52      -0.502500
     14 C01         -0.5020     0.0000     1.4210 c          1 M52       0.539100
     15 O01          0.2860    -0.0000     2.3430 o          1 M52      -0.620100
     16 N02         -1.8270    -0.0000     1.6680 ns         1 M52      -0.024100
     17 C02         -2.2940     0.0960     2.9850 ca         1 M52      -0.137400
     18 C04         -3.4600     0.7990     3.2590 ca         1 M52      -0.074000
     19 C05         -1.5950    -0.5150     4.0170 ca         1 M52      -0.074000
     20 C07         -2.0560    -0.4190     5.3150 ca         1 M52      -0.159000
     21 C08         -3.2180     0.2880     5.5880 ca         1 M52       0.140100
     22 C03         -3.9200     0.8940     4.5560 ca         1 M52      -0.159000
     23 O02         -3.6720     0.3820     6.8660 os         1 M52      -0.306900
     24 C06         -4.8750     1.1250     7.0740 c3         1 M52       0.244700
     25 H10         -0.3610    -0.8840    -0.5110 h1         1 M52       0.030700
     26 H10A        -0.3610     0.8850    -0.5100 h1         1 M52       0.030700
     27 H13          2.9210    -2.5790    -5.5540 h4         1 M52      -0.011900
     28 H14          0.9890    -0.3260    -2.4730 ha         1 M52       0.115000
     29 HN04         5.0820    -3.6810    -1.6130 hn         1 M52       0.285800
     30 HN0A         3.7490    -3.6960    -0.5050 hn         1 M52       0.285800
     31 H09          2.8540     1.2170     0.9840 h1         1 M52       0.007033
     32 H09A         1.4940     2.0770     0.2500 h1         1 M52       0.007033
     33 H09B         2.7850     1.4290    -0.7710 h1         1 M52       0.007033
     34 HN02        -2.4750     0.0430     0.9060 hn         1 M52       0.159500
     35 H04         -4.0090     1.2730     2.4530 ha         1 M52       0.125000
     36 H05         -0.6880    -1.0670     3.8040 ha         1 M52       0.125000
     37 H07         -1.5090    -0.8940     6.1200 ha         1 M52       0.119500
     38 H03         -4.8290     1.4440     4.7700 ha         1 M52       0.119500
     39 H06         -5.7020     0.6150     6.5950 h1         1 M52      -0.003633
     40 H06A        -5.0690     1.2080     8.1370 h1         1 M52      -0.003633
     41 H06B        -4.7660     2.1150     6.6490 h1         1 M52      -0.003633
     42 Br           0.8520    -0.4730    -5.4480 br         1 M52      -0.108100
@<TRIPOS>BOND
     1     1    13 1   
     2     1    14 1   
     3     1    25 1   
     4     1    26 1   
     5     2     4 ar  
     6     2     6 ar  
     7     2    27 1   
     8     3     6 ar  
     9     3     7 1   
    10     3     8 ar  
    11     4     5 ar  
    12     4    42 1   
    13     5     8 ar  
    14     5    28 1   
    15     7    29 1   
    16     7    30 1   
    17     8     9 1   
    18     9    10 2   
    19     9    12 2   
    20     9    13 1   
    21    11    13 1   
    22    11    31 1   
    23    11    32 1   
    24    11    33 1   
    25    14    15 2   
    26    14    16 1   
    27    16    17 1   
    28    16    34 1   
    29    17    18 ar  
    30    17    19 ar  
    31    18    22 ar  
    32    18    35 1   
    33    19    20 ar  
    34    19    36 1   
    35    20    21 ar  
    36    20    37 1   
    37    21    22 ar  
    38    21    23 1   
    39    22    38 1   
    40    23    24 1   
    41    24    39 1   
    42    24    40 1   
    43    24    41 1   
@<TRIPOS>SUBSTRUCTURE
     1 M52         1 TEMP              0 ****  ****    0 ROOT
