@<TRIPOS>MOLECULE
molecule
   54    58     1     0     0
SMALL
bcc


@<TRIPOS>ATOM
      1 C            0.0000     0.0000     0.0000 ca         1 M54       0.034000
      2 C1           1.4020     0.0000     0.0000 ca         1 M54      -0.116000
      3 C2           2.1000     0.0000     1.1670 ca         1 M54      -0.140000
      4 C3          -0.7010     0.0020     1.1950 ca         1 M54      -0.112000
      5 C4           0.0010     0.0040     2.4030 ca         1 M54       0.028000
      6 C5           1.4180     0.0020     2.3950 ca         1 M54      -0.062000
      7 C6           2.1230     0.0030     3.6150 ca         1 M54      -0.068300
      8 C7           1.4750     0.0060     4.8050 ca         1 M54      -0.120000
      9 C8          -0.6890     0.0040     3.6890 ca         1 M54      -0.143600
     10 C9           0.0740     0.0060     4.8710 ca         1 M54       0.028200
     11 C10         -0.6410     0.0070     6.1550 cc         1 M54      -0.123400
     12 C11         -1.9990     0.0060     6.1580 cd         1 M54       0.023600
     13 N           -2.7250     0.0040     5.0090 ns         1 M54      -0.417100
     14 C12         -2.1460     0.0050     3.7920 c          1 M54       0.707100
     15 O           -2.8320     0.0030     2.7850 o          1 M54      -0.636500
     16 C13         -0.7390     0.0050    -1.2870 cd         1 M54      -0.281300
     17 C14         -0.1840     0.0100    -2.5350 cc         1 M54      -0.097300
     18 N15         -1.1940     0.0140    -3.4290 na         1 M54      -0.032600
     19 N16         -2.4030     0.0110    -2.7240 nc         1 M54      -0.495800
     20 C17         -2.1380     0.0010    -1.4450 cd         1 M54       0.359200
     21 C18          3.6310     0.0010     3.5960 c3         1 M54      -0.026100
     22 C19          4.1410     1.4360     3.4610 c3         1 M54      -0.110400
     23 C20          5.6710     1.4340     3.4420 c3         1 M54       0.087800
     24 N21          6.1610     2.8130     3.3130 nz         1 M54      -0.810600
     25 C22          0.1120     0.0080     7.4320 ca         1 M54      -0.027800
     26 C23          0.9020     1.1050     7.7770 ca         1 M54      -0.138000
     27 C24          1.5220     0.0180     9.8190 ca         1 M54      -0.146000
     28 C25          0.7350    -1.0750     9.4850 ca         1 M54       0.115100
     29 C26          1.6010     1.1050     8.9670 ca         1 M54      -0.122000
     30 C27          0.0290    -1.0840     8.2930 ca         1 M54      -0.143000
     31 O28          0.6560    -2.1380    10.3280 oh         1 M54      -0.517100
     32 H1           1.9360    -0.0010    -0.9420 ha         1 M54       0.127000
     33 H2           3.1830    -0.0000     1.1500 ha         1 M54       0.108000
     34 H3          -1.7840     0.0020     1.1930 ha         1 M54       0.194000
     35 H7           2.0500     0.0050     5.7240 ha         1 M54       0.141000
     36 H11         -2.5210     0.0050     7.1070 h4         1 M54       0.165000
     37 HN          -3.7240     0.0030     5.0680 hn         1 M54       0.347500
     38 H14          0.8740     0.0110    -2.7650 h4         1 M54       0.168000
     39 HN15        -1.0950     0.0190    -4.4250 hn         1 M54       0.336700
     40 H17         -2.8680    -0.0040    -0.6440 h4         1 M54       0.065100
     41 H181         3.9810    -0.5870     2.7560 hc         1 M54       0.065200
     42 H182         4.0030    -0.4300     4.5180 hc         1 M54       0.065200
     43 H191         3.7910     2.0240     4.3010 hc         1 M54       0.071200
     44 H192         3.7690     1.8660     2.5390 hc         1 M54       0.071200
     45 H201         6.0210     0.8460     2.6020 hx         1 M54       0.111700
     46 H202         6.0430     1.0040     4.3640 hx         1 M54       0.111700
     47 H211         5.8240     3.3600     4.0800 hn         1 M54       0.456467
     48 H212         5.8310     3.2050     2.4530 hn         1 M54       0.456467
     49 H23          0.9660     1.9580     7.1110 ha         1 M54       0.130000
     50 H24          2.0720     0.0220    10.7520 ha         1 M54       0.148000
     51 H26          2.2150     1.9560     9.2330 ha         1 M54       0.132000
     52 H27         -0.5860    -1.9360     8.0310 ha         1 M54       0.150000
     53 HO28        -0.0850    -2.0320    10.9010 ho         1 M54       0.428000
     54 H213         7.1620     2.8130     3.3200 hn         1 M54       0.456467
@<TRIPOS>BOND
     1    19    18 1
     2    19    20 2
     3    18    17 1
     4    20    16 1
     5    15    14 2
     6    17    16 2
     7    16     1 1
     8    14    13 1
     9    14     9 1
    10    13    12 1
    11     4     1 ar
    12     4     5 ar
    13     1     2 ar
    14     9     5 ar
    15     9    10 ar
    16    12    11 2
    17     5     6 ar
    18     2     3 ar
    19    26    29 ar
    20    26    25 ar
    21    11    10 1
    22    11    25 1
    23    10     8 ar
    24     6     3 ar
    25     6     7 ar
    26    29    27 ar
    27    25    30 ar
    28     8     7 ar
    29     7    21 1
    30    21    22 1
    31    27    28 ar
    32    30    28 ar
    33    28    31 1
    34    22    23 1
    35    23    24 1
    36     2    32 1
    37     3    33 1
    38     4    34 1
    39     8    35 1
    40    12    36 1
    41    13    37 1
    42    17    38 1
    43    18    39 1
    44    20    40 1
    45    21    41 1
    46    21    42 1
    47    22    43 1
    48    22    44 1
    49    23    45 1
    50    23    46 1
    51    24    47 1
    52    24    48 1
    53    26    49 1
    54    27    50 1
    55    29    51 1
    56    30    52 1
    57    31    53 1
    58    54    24 1
@<TRIPOS>SUBSTRUCTURE
     1 M54         1 TEMP              0 ****  ****    0 ROOT
