@<TRIPOS>MOLECULE
M54
   54    58     1     0     0
SMALL
bcc


@<TRIPOS>ATOM
      1 C            0.0000     0.0000     0.0000 ca         1 M54       0.051000
      2 C1           1.4020     0.0000     0.0000 ca         1 M54      -0.092000
      3 C2           2.1000     0.0000     1.1670 ca         1 M54      -0.124000
      4 C3          -0.7010     0.0020     1.1950 ca         1 M54      -0.108000
      5 C4           0.0010     0.0040     2.4030 ca         1 M54       0.041000
      6 C5           1.4180     0.0020     2.3950 ca         1 M54      -0.064000
      7 C6           2.1230     0.0030     3.6150 ca         1 M54      -0.078300
      8 C7           1.4750     0.0060     4.8050 ca         1 M54      -0.104000
      9 C8          -0.6890     0.0040     3.6890 ca         1 M54      -0.144600
     10 C9           0.0740     0.0060     4.8710 ca         1 M54       0.027200
     11 C10         -0.6410     0.0070     6.1550 cc         1 M54      -0.103400
     12 C11         -1.9990     0.0060     6.1580 cd         1 M54      -0.128400
     13 N           -2.7250     0.0040     5.0090 ns         1 M54       0.070900
     14 C12         -2.1460     0.0050     3.7920 c          1 M54       0.605100
     15 O           -2.8320     0.0030     2.7850 o          1 M54      -0.681500
     16 C13         -0.7390     0.0050    -1.2870 cc         1 M54      -0.289300
     17 C14         -0.1840     0.0100    -2.5350 cd         1 M54      -0.257300
     18 N15         -1.1940     0.0140    -3.4290 na         1 M54       0.468400
     19 N16         -2.4030     0.0110    -2.7240 nd         1 M54      -0.650800
     20 C17         -2.1380     0.0010    -1.4450 cc         1 M54       0.422200
     21 C18          3.6310     0.0010     3.5960 c3         1 M54       0.037900
     22 C19          4.1410     1.4360     3.4610 c3         1 M54      -0.040400
     23 C20          5.6710     1.4340     3.4420 c3         1 M54      -0.055200
     24 N21          6.1610     2.8130     3.3130 nz         1 M54       0.086400
     25 C22          0.1120     0.0080     7.4320 ca         1 M54      -0.012800
     26 C23          0.9020     1.1050     7.7770 ca         1 M54      -0.127000
     27 C24          1.5220     0.0180     9.8190 ca         1 M54      -0.134000
     28 C25          0.7350    -1.0750     9.4850 ca         1 M54       0.138100
     29 C26          1.6010     1.1050     8.9670 ca         1 M54      -0.085000
     30 C27          0.0290    -1.0840     8.2930 ca         1 M54      -0.132000
     31 O28          0.6560    -2.1380    10.3280 oh         1 M54      -0.497100
     32 H1           1.9360    -0.0010    -0.9420 ha         1 M54       0.103000
     33 H2           3.1830    -0.0000     1.1500 ha         1 M54       0.089000
     34 H3          -1.7840     0.0020     1.1930 ha         1 M54       0.178000
     35 H7           2.0500     0.0050     5.7240 ha         1 M54       0.119000
     36 H11         -2.5210     0.0050     7.1070 h4         1 M54       0.133000
     37 HN          -3.7240     0.0030     5.0680 hn         1 M54       0.178500
     38 H14          0.8740     0.0110    -2.7650 h4         1 M54       0.143000
     39 HN15        -1.0950     0.0190    -4.4250 hn         1 M54       0.150700
     40 H17         -2.8680    -0.0040    -0.6440 h4         1 M54       0.019100
     41 H181         3.9810    -0.5870     2.7560 hc         1 M54       0.034200
     42 H182         4.0030    -0.4300     4.5180 hc         1 M54       0.034200
     43 H191         3.7910     2.0240     4.3010 hc         1 M54       0.039700
     44 H192         3.7690     1.8660     2.5390 hc         1 M54       0.039700
     45 H201         6.0210     0.8460     2.6020 hx         1 M54       0.085200
     46 H202         6.0430     1.0040     4.3640 hx         1 M54       0.085200
     47 H211         5.8240     3.3600     4.0800 hn         1 M54       0.223133
     48 H212         5.8310     3.2050     2.4530 hn         1 M54       0.223133
     49 H23          0.9660     1.9580     7.1110 ha         1 M54       0.105000
     50 H24          2.0720     0.0220    10.7520 ha         1 M54       0.119000
     51 H26          2.2150     1.9560     9.2330 ha         1 M54       0.101000
     52 H27         -0.5860    -1.9360     8.0310 ha         1 M54       0.124000
     53 HO28        -0.0850    -2.0320    10.9010 ho         1 M54       0.410000
     54 H213         7.1620     2.8130     3.3200 hn         1 M54       0.223133
@<TRIPOS>BOND
     1     1     2 ar  
     2     1     4 ar  
     3     1    16 1   
     4     2     3 ar  
     5     2    32 1   
     6     3     6 ar  
     7     3    33 1   
     8     4     5 ar  
     9     4    34 1   
    10     5     6 ar  
    11     5     9 ar  
    12     6     7 ar  
    13     7     8 ar  
    14     7    21 1   
    15     8    10 ar  
    16     8    35 1   
    17     9    10 ar  
    18     9    14 1   
    19    10    11 1   
    20    11    12 2   
    21    11    25 1   
    22    12    13 1   
    23    12    36 1   
    24    13    14 1   
    25    13    37 1   
    26    14    15 2   
    27    16    17 2   
    28    16    20 1   
    29    17    18 1   
    30    17    38 1   
    31    18    19 1   
    32    18    39 1   
    33    19    20 2   
    34    20    40 1   
    35    21    22 1   
    36    21    41 1   
    37    21    42 1   
    38    22    23 1   
    39    22    43 1   
    40    22    44 1   
    41    23    24 1   
    42    23    45 1   
    43    23    46 1   
    44    24    47 1   
    45    24    48 1   
    46    24    54 1   
    47    25    26 ar  
    48    25    30 ar  
    49    26    29 ar  
    50    26    49 1   
    51    27    28 ar  
    52    27    29 ar  
    53    27    50 1   
    54    28    30 ar  
    55    28    31 1   
    56    29    51 1   
    57    30    52 1   
    58    31    53 1   
@<TRIPOS>SUBSTRUCTURE
     1 M54         1 TEMP              0 ****  ****    0 ROOT
