@<TRIPOS>MOLECULE
M59
   36    39     1     0     0
SMALL
bcc


@<TRIPOS>ATOM
      1 C2           0.0000     0.0000     0.0000 ca         1 M59       0.224800
      2 N3           1.3280     0.0000     0.0000 nb         1 M59      -0.618000
      3 C4           1.9990     0.0000     1.1320 ca         1 M59       0.637900
      4 N5           1.4020     0.0010     2.3100 nb         1 M59      -0.661000
      5 C6           0.0770     0.0010     2.4090 ca         1 M59       0.600200
      6 C7          -0.6840    -0.0050     1.2270 ca         1 M59      -0.187200
      7 N8          -0.5410     0.0020     3.6480 nv         1 M59      -0.646500
      8 N14         -2.0090    -0.0070     0.9480 nc         1 M59      -0.489100
      9 C15         -2.1790    -0.0140    -0.3420 cd         1 M59       0.240700
     10 N18         -0.9700    -0.0000    -0.9710 na         1 M59       0.223000
     11 C1          -0.7450    -0.0010    -2.4190 c3         1 M59      -0.071000
     12 C3          -1.5040    -1.1740    -3.0820 c3         1 M59      -0.029400
     13 C5          -2.5030    -0.4920    -4.0650 c3         1 M59      -0.082000
     14 C8          -1.6020     0.0850    -5.1990 c3         1 M59      -0.015400
     15 C9          -0.8450     1.2580    -4.5370 c3         1 M59      -0.021400
     16 C10         -1.3580     1.2800    -3.0650 c3         1 M59      -0.058700
     17 C11         -2.8450     0.8170    -3.2700 c3         1 M59      -0.041400
     18 C12         -3.6940    -1.3450    -4.5060 c3         1 M59       0.259400
     19 O13         -3.2220    -2.5060    -5.1910 oh         1 M59      -0.590800
     20 H1           3.0820    -0.0000     1.0970 h5         1 M59      -0.001900
     21 H2          -0.7480    -0.8650     4.1040 hn         1 M59       0.281800
     22 H3          -0.7530     0.8680     4.1010 hn         1 M59       0.281800
     23 H4          -3.1390    -0.0290    -0.8430 h5         1 M59       0.043800
     24 H5           0.3140    -0.0650    -2.6380 h1         1 M59       0.071700
     25 H6          -0.8150    -1.8100    -3.6240 hc         1 M59       0.035200
     26 H7          -2.0400    -1.7460    -2.3350 hc         1 M59       0.035200
     27 H8          -0.9040    -0.6670    -5.5470 hc         1 M59       0.024200
     28 H9          -2.2120     0.4440    -6.0200 hc         1 M59       0.024200
     29 H10         -1.0840     2.1910    -5.0340 hc         1 M59       0.020700
     30 H11          0.2240     1.0800    -4.5610 hc         1 M59       0.020700
     31 H12         -1.2210     2.2060    -2.5210 hc         1 M59       0.058700
     32 H13         -3.4060     1.5200    -3.8740 hc         1 M59       0.029700
     33 H14         -3.3340     0.6010    -2.3280 hc         1 M59       0.029700
     34 H15         -4.2640    -1.6470    -3.6360 h1         1 M59      -0.011800
     35 H16         -4.3270    -0.7670    -5.1690 h1         1 M59      -0.011800
     36 H17         -3.9560    -3.0290    -5.4670 ho         1 M59       0.392000
@<TRIPOS>BOND
     1     1     2 ar  
     2     1     6 ar  
     3     1    10 1   
     4     2     3 ar  
     5     3     4 ar  
     6     3    20 1   
     7     4     5 ar  
     8     5     6 ar  
     9     5     7 1   
    10     6     8 1   
    11     7    21 1   
    12     7    22 1   
    13     8     9 2   
    14     9    10 1   
    15     9    23 1   
    16    10    11 1   
    17    11    12 1   
    18    11    16 1   
    19    11    24 1   
    20    12    13 1   
    21    12    25 1   
    22    12    26 1   
    23    13    14 1   
    24    13    17 1   
    25    13    18 1   
    26    14    15 1   
    27    14    27 1   
    28    14    28 1   
    29    15    16 1   
    30    15    29 1   
    31    15    30 1   
    32    16    17 1   
    33    16    31 1   
    34    17    32 1   
    35    17    33 1   
    36    18    19 1   
    37    18    34 1   
    38    18    35 1   
    39    19    36 1   
@<TRIPOS>SUBSTRUCTURE
     1 M59         1 TEMP              0 ****  ****    0 ROOT
