@<TRIPOS>MOLECULE
M5C
   41    41     1     0     0
SMALL
bcc


@<TRIPOS>ATOM
      1 OAD          0.0000     0.0000     0.0000 o          1 M5C      -0.556000
      2 CAT          1.2090     0.0000     0.0000 c          1 M5C       0.702100
      3 OAO          1.8790     0.0060    -1.1620 os         1 M5C      -0.430900
      4 CAA          1.0880     0.0110    -2.3800 c3         1 M5C       0.272700
      5 CBC          1.9620     0.0000     1.3050 c3         1 M5C      -0.078700
      6 CBD          0.9680     0.0000     2.4680 c3         1 M5C      -0.082700
      7 CAU          0.1010    -1.2300     2.3890 c          1 M5C       0.710100
      8 OAP         -0.8500    -1.4430     3.3110 os         1 M5C      -0.410900
      9 CAB         -1.6460    -2.6500     3.1730 c3         1 M5C       0.271700
     10 OAE          0.2630    -2.0260     1.4940 o          1 M5C      -0.588000
     11 CAM          2.8410     1.2500     1.3860 c3         1 M5C      -0.020400
     12 CAZ          3.6060     1.2510     2.7110 c3         1 M5C       0.171100
     13 OAQ          4.4280     0.0840     2.7870 os         1 M5C      -0.436600
     14 CAL          5.6210     0.2620     3.5530 c3         1 M5C       0.196400
     15 CAJ          6.4190    -1.0430     3.5660 c3         1 M5C      -0.048200
     16 NAC          6.8740    -1.3530     2.2030 nz         1 M5C       0.088400
     17 CBA          2.6110     1.2500     3.8740 c3         1 M5C       0.169100
     18 CAN          1.7320     0.0010     3.7930 c3         1 M5C      -0.030400
     19 OX0          1.7900     2.4160     3.7990 oh         1 M5C      -0.564800
     20 HBC          2.5870    -0.8830     1.3670 hc         1 M5C       0.047700
     21 HAA1         0.4640     0.8970    -2.4020 h1         1 M5C       0.006700
     22 HAA2         0.4620    -0.8720    -2.4090 h1         1 M5C       0.006700
     23 HAA3         1.7480     0.0140    -3.2390 h1         1 M5C       0.006700
     24 HBD          0.3490     0.8870     2.4110 hc         1 M5C       0.085700
     25 HAM1         3.5460     1.2480     0.5630 hc         1 M5C       0.045200
     26 HAM2         2.2160     2.1330     1.3300 hc         1 M5C       0.045200
     27 HAN1         2.3570    -0.8830     3.8490 hc         1 M5C       0.034200
     28 HAN2         1.0270     0.0040     4.6160 hc         1 M5C       0.034200
     29 HAB1        -0.9980    -3.5170     3.2190 h1         1 M5C       0.004700
     30 HAB2        -2.1620    -2.6350     2.2210 h1         1 M5C       0.004700
     31 HAB3        -2.3710    -2.6980     3.9760 h1         1 M5C       0.004700
     32 HAZ          4.2250     2.1380     2.7680 h1         1 M5C       0.019700
     33 HBA          3.1550     1.2460     4.8110 h1         1 M5C      -0.001300
     34 HAL1         6.2210     1.0480     3.1090 h1         1 M5C       0.029200
     35 HAL2         5.3620     0.5360     4.5680 h1         1 M5C       0.029200
     36 HAJ1         5.7900    -1.8470     3.9280 hx         1 M5C       0.090200
     37 HAJ2         7.2780    -0.9350     4.2170 hx         1 M5C       0.090200
     38 HAC1         7.6730    -1.9530     2.2470 hn         1 M5C       0.226800
     39 HAC2         6.1390    -1.8110     1.7020 hn         1 M5C       0.226800
     40 HX0          1.9680     2.9740     4.5380 ho         1 M5C       0.402000
     41 HAC3         7.1280    -0.5050     1.7360 hn         1 M5C       0.226800
@<TRIPOS>BOND
     1     1     2 2   
     2     2     3 1   
     3     2     5 1   
     4     3     4 1   
     5     4    21 1   
     6     4    22 1   
     7     4    23 1   
     8     5     6 1   
     9     5    11 1   
    10     5    20 1   
    11     6     7 1   
    12     6    18 1   
    13     6    24 1   
    14     7     8 1   
    15     7    10 2   
    16     8     9 1   
    17     9    29 1   
    18     9    30 1   
    19     9    31 1   
    20    11    12 1   
    21    11    25 1   
    22    11    26 1   
    23    12    13 1   
    24    12    17 1   
    25    12    32 1   
    26    13    14 1   
    27    14    15 1   
    28    14    34 1   
    29    14    35 1   
    30    15    16 1   
    31    15    36 1   
    32    15    37 1   
    33    16    38 1   
    34    16    39 1   
    35    16    41 1   
    36    17    18 1   
    37    17    19 1   
    38    17    33 1   
    39    18    27 1   
    40    18    28 1   
    41    19    40 1   
@<TRIPOS>SUBSTRUCTURE
     1 M5C         1 TEMP              0 ****  ****    0 ROOT
