@<TRIPOS>MOLECULE
molecule
   27    27     1     0     0
SMALL
bcc


@<TRIPOS>ATOM
      1 F5           0.0000     0.0000     0.0000 f          1 M5F      -0.076500
      2 C5           1.3510     0.0000     0.0000 cc         1 M5F       0.098300
      3 C6           2.0360     0.0000     1.1630 cd         1 M5F      -0.125400
      4 N1           3.4080    -0.0000     1.1440 n          1 M5F      -0.393000
      5 CAB          4.1510    -0.0000     2.4060 c3         1 M5F       0.110000
      6 CAM          4.4100    -1.4440     2.8450 c3         1 M5F       0.051500
      7 CAL          5.2930    -1.4460     4.0950 c3         1 M5F       0.078800
      8 NAJ          5.6390    -2.8290     4.4460 nz         1 M5F      -0.828600
      9 NAA          5.0900    -2.1700     1.7640 nz         1 M5F      -0.819600
     10 C2           4.0750    -0.0000    -0.0230 c          1 M5F       0.795500
     11 O2           5.2920    -0.0010    -0.0180 o          1 M5F      -0.691500
     12 N3           3.4180    -0.0010    -1.1980 ns         1 M5F      -0.536500
     13 C4           2.0690    -0.0050    -1.2230 c          1 M5F       0.653700
     14 O4           1.4750    -0.0110    -2.2850 o          1 M5F      -0.477500
     15 H1           1.5080     0.1130     2.1030 h4         1 M5F       0.195000
     16 H2           5.0970     0.5100     2.2680 h1         1 M5F       0.128700
     17 H3           3.5730     0.5100     3.1660 h1         1 M5F       0.128700
     18 H4           3.4670    -1.9280     3.0680 hx         1 M5F       0.138700
     19 H5           4.7560    -0.9880     4.9170 hx         1 M5F       0.158200
     20 H6           6.1980    -0.8850     3.8980 hx         1 M5F       0.158200
     21 H7           5.8990    -2.8740     5.4110 hn         1 M5F       0.476800
     22 H8           4.8490    -3.4220     4.2850 hn         1 M5F       0.476800
     23 H10          5.2820    -3.1060     2.0600 hn         1 M5F       0.473800
     24 H11          5.9490    -1.7080     1.5400 hn         1 M5F       0.473800
     25 H13          3.9320    -0.0030    -2.0570 hn         1 M5F       0.402500
     26 HAJ3         6.4160    -3.1300     3.8900 hn         1 M5F       0.476800
     27 HAA3         4.4950    -2.2030     0.9590 hn         1 M5F       0.473800
@<TRIPOS>BOND
     1     1     2 1
     2    14    13 2
     3    13     2 1
     4    13    12 1
     5     2     3 2
     6    12    10 1
     7     3     4 1
     8    10     4 1
     9    10    11 2
    10     4     5 1
    11     9     6 1
    12     5     6 1
    13     6     7 1
    14     7     8 1
    15     3    15 1
    16     5    16 1
    17     5    17 1
    18     6    18 1
    19     7    19 1
    20     7    20 1
    21     8    21 1
    22     8    22 1
    23     9    23 1
    24     9    24 1
    25    12    25 1
    26    26     8 1
    27    27     9 1
@<TRIPOS>SUBSTRUCTURE
     1 M5F         1 TEMP              0 ****  ****    0 ROOT
