@<TRIPOS>MOLECULE
M5F
   27    27     1     0     0
SMALL
bcc


@<TRIPOS>ATOM
      1 F5           0.0000     0.0000     0.0000 f          1 M5F      -0.084500
      2 C5           1.3510     0.0000     0.0000 cc         1 M5F       0.112300
      3 C6           2.0360     0.0000     1.1630 cd         1 M5F      -0.246400
      4 N1           3.4080    -0.0000     1.1440 n          1 M5F       0.001000
      5 CAB          4.1510    -0.0000     2.4060 c3         1 M5F       0.049000
      6 CAM          4.4100    -1.4440     2.8450 c3         1 M5F      -0.106500
      7 CAL          5.2930    -1.4460     4.0950 c3         1 M5F      -0.048200
      8 NAJ          5.6390    -2.8290     4.4460 nz         1 M5F       0.066400
      9 NAA          5.0900    -2.1700     1.7640 nz         1 M5F       0.035400
     10 C2           4.0750    -0.0000    -0.0230 c          1 M5F       0.574500
     11 O2           5.2920    -0.0010    -0.0180 o          1 M5F      -0.748500
     12 N3           3.4180    -0.0010    -1.1980 ns         1 M5F      -0.084500
     13 C4           2.0690    -0.0050    -1.2230 c          1 M5F       0.550700
     14 O4           1.4750    -0.0110    -2.2850 o          1 M5F      -0.500500
     15 H1           1.5080     0.1130     2.1030 h4         1 M5F       0.170000
     16 H2           5.0970     0.5100     2.2680 h1         1 M5F       0.092200
     17 H3           3.5730     0.5100     3.1660 h1         1 M5F       0.092200
     18 H4           3.4670    -1.9280     3.0680 hx         1 M5F       0.110700
     19 H5           4.7560    -0.9880     4.9170 hx         1 M5F       0.125700
     20 H6           6.1980    -0.8850     3.8980 hx         1 M5F       0.125700
     21 H7           5.8990    -2.8740     5.4110 hn         1 M5F       0.243467
     22 H8           4.8490    -3.4220     4.2850 hn         1 M5F       0.243467
     23 H10          5.2820    -3.1060     2.0600 hn         1 M5F       0.248800
     24 H11          5.9490    -1.7080     1.5400 hn         1 M5F       0.248800
     25 H13          3.9320    -0.0030    -2.0570 hn         1 M5F       0.239500
     26 HAJ3         6.4160    -3.1300     3.8900 hn         1 M5F       0.243467
     27 HAA3         4.4950    -2.2030     0.9590 hn         1 M5F       0.248800
@<TRIPOS>BOND
     1     1     2 1   
     2     2     3 2   
     3     2    13 1   
     4     3     4 1   
     5     3    15 1   
     6     4     5 1   
     7     4    10 1   
     8     5     6 1   
     9     5    16 1   
    10     5    17 1   
    11     6     7 1   
    12     6     9 1   
    13     6    18 1   
    14     7     8 1   
    15     7    19 1   
    16     7    20 1   
    17     8    21 1   
    18     8    22 1   
    19     8    26 1   
    20     9    23 1   
    21     9    24 1   
    22     9    27 1   
    23    10    11 2   
    24    10    12 1   
    25    12    13 1   
    26    12    25 1   
    27    13    14 2   
@<TRIPOS>SUBSTRUCTURE
     1 M5F         1 TEMP              0 ****  ****    0 ROOT
