@<TRIPOS>MOLECULE
molecule
   22    23     1     0     0
SMALL
bcc


@<TRIPOS>ATOM
      1 C01          0.0000     0.0000     0.0000 c3         1 M5K      -0.050800
      2 C02          1.5070     0.0000     0.0000 ca         1 M5K      -0.034300
      3 C03          2.2060     0.0000     1.1690 ca         1 M5K      -0.258300
      4 C12          2.2290    -0.0070    -1.2110 ca         1 M5K      -0.161300
      5 C04          3.6080    -0.0010     1.1440 ca         1 M5K       0.692200
      6 N05          4.3070    -0.0010     2.3420 nv         1 M5K      -1.086500
      7 N06          4.2780    -0.0030     0.0100 nb         1 M5K      -0.709000
      8 C08          4.3650    -0.0090    -2.3770 ca         1 M5K      -0.166300
      9 C07          3.6450    -0.0080    -1.1690 ca         1 M5K       0.432600
     10 C10          2.3030    -0.0190    -3.6010 ca         1 M5K      -0.131000
     11 C11          1.5730    -0.0120    -2.4510 ca         1 M5K      -0.109000
     12 C09          3.6950    -0.0140    -3.5620 ca         1 M5K      -0.120000
     13 H011        -0.3610     0.8840    -0.5110 hc         1 M5K       0.048700
     14 H012        -0.3610    -0.8850    -0.5100 hc         1 M5K       0.048700
     15 H013        -0.3610     0.0010     1.0210 hc         1 M5K       0.048700
     16 H03          1.6810     0.0710     2.1140 ha         1 M5K       0.142000
     17 H051         4.5480    -0.8680     2.7810 hn         1 M5K       0.436300
     18 H052         4.5940     0.8650     2.7540 hn         1 M5K       0.436300
     19 H08          5.4480    -0.0050    -2.3640 ha         1 M5K       0.148000
     20 H09          4.2540    -0.0200    -4.4900 ha         1 M5K       0.131000
     21 H10          1.7950    -0.0230    -4.5570 ha         1 M5K       0.129000
     22 H11          0.4910    -0.0160    -2.4940 ha         1 M5K       0.132000
@<TRIPOS>BOND
     1     1     2 1
     2     2     3 ar
     3     2     4 ar
     4     3     5 ar
     5     5     6 1
     6     5     7 ar
     7     7     9 ar
     8     9     8 ar
     9     9     4 ar
    10     8    12 ar
    11    12    10 ar
    12    10    11 ar
    13    11     4 ar
    14     1    13 1
    15     1    14 1
    16     1    15 1
    17     3    16 1
    18     6    17 1
    19     6    18 1
    20     8    19 1
    21    12    20 1
    22    10    21 1
    23    11    22 1
@<TRIPOS>SUBSTRUCTURE
     1 M5K         1 TEMP              0 ****  ****    0 ROOT
