@<TRIPOS>MOLECULE
molecule
   30    30     1     0     0
SMALL
bcc


@<TRIPOS>ATOM
      1 C1           0.0000     0.0000     0.0000 ca         1 M5P      -0.125000
      2 C2           1.3810     0.0000     0.0000 ca         1 M5P      -0.133000
      3 C3           2.0730     0.0000     1.1970 ca         1 M5P      -0.149000
      4 C4           1.3820     0.0010     2.3940 ca         1 M5P      -0.133000
      5 C5          -0.0000     0.0020     2.3940 ca         1 M5P      -0.125000
      6 C6          -0.6910     0.0010     1.1970 ca         1 M5P      -0.058300
      7 C7          -2.1990     0.0020     1.1970 c3         1 M5P      -0.042100
      8 C8          -2.7100    -1.4410     1.1980 c3         1 M5P      -0.076400
      9 C9          -4.2390    -1.4390     1.1980 c3         1 M5P      -0.061400
     10 C10         -4.7500    -2.8760     1.0690 c3         1 M5P      -0.158700
     11 C12         -4.3850    -3.6520     2.3080 c          1 M5P       0.895600
     12 O2          -3.7780    -3.1120     3.2020 o          1 M5P      -0.842300
     13 O1          -4.7330    -4.9440     2.4180 o          1 M5P      -0.842300
     14 C11         -6.2720    -2.8640     0.9050 c3         1 M5P       0.093700
     15 S1          -6.7040    -2.0760    -0.6700 sh         1 M5P      -0.505900
     16 H1          -0.5420    -0.0010    -0.9380 ha         1 M5P       0.133500
     17 H2           1.9230    -0.0010    -0.9380 ha         1 M5P       0.117000
     18 H3           3.1570    -0.0010     1.1970 ha         1 M5P       0.114000
     19 H4           1.9240     0.0010     3.3320 ha         1 M5P       0.117000
     20 H5          -0.5420     0.0030     3.3320 ha         1 M5P       0.133500
     21 H71         -2.5590     0.5130     2.0820 hc         1 M5P       0.039700
     22 H72         -2.5600     0.5130     0.3130 hc         1 M5P       0.039700
     23 H81         -2.3500    -1.9520     0.3130 hc         1 M5P       0.063200
     24 H82         -2.3490    -1.9520     2.0820 hc         1 M5P       0.063200
     25 H91         -4.6000    -0.8510     0.3630 hc         1 M5P       0.033700
     26 H92         -4.6000    -1.0090     2.1250 hc         1 M5P       0.033700
     27 H10         -4.2980    -3.3440     0.2030 hc         1 M5P       0.058700
     28 H111        -6.7180    -2.3080     1.7210 h1         1 M5P       0.063200
     29 H112        -6.6440    -3.8810     0.9150 h1         1 M5P       0.063200
     30 HS1         -7.9570    -2.3780    -0.9870 hs         1 M5P       0.189800
@<TRIPOS>BOND
     1     1     2 ar
     2     1     6 ar
     3     1    16 1
     4     2     3 ar
     5     2    17 1
     6     3     4 ar
     7     3    18 1
     8     4     5 ar
     9     4    19 1
    10     5     6 ar
    11     5    20 1
    12     6     7 1
    13     7     8 1
    14     7    21 1
    15     7    22 1
    16     8     9 1
    17     8    23 1
    18     8    24 1
    19     9    10 1
    20     9    25 1
    21     9    26 1
    22    10    11 1
    23    10    14 1
    24    10    27 1
    25    11    12 1
    26    11    13 1
    27    14    15 1
    28    14    28 1
    29    14    29 1
    30    15    30 1
@<TRIPOS>SUBSTRUCTURE
     1 M5P         1 TEMP              0 ****  ****    0 ROOT
