@<TRIPOS>MOLECULE
M5P
   30    30     1     0     0
SMALL
bcc


@<TRIPOS>ATOM
      1 C1          0.0520    0.5820    0.0470 ca        1 M5P     -0.130000
      2 C2          1.4440    0.6290    0.1080 ca        1 M5P     -0.137000
      3 C3          2.1150    0.0900    1.2050 ca        1 M5P     -0.151000
      4 C4          1.3870   -0.4990    2.2400 ca        1 M5P     -0.137000
      5 C5         -0.0040   -0.5470    2.1820 ca        1 M5P     -0.130000
      6 C6         -0.6850   -0.0050    1.0820 ca        1 M5P     -0.055300
      7 C7         -2.1720   -0.0390    1.0340 c3        1 M5P     -0.039100
      8 C8         -2.7210   -1.4520    1.0690 c3        1 M5P     -0.082400
      9 C9         -4.2340   -1.4450    1.1220 c3        1 M5P     -0.049400
     10 C10        -4.7920   -2.8460    1.2920 c3        1 M5P     -0.186700
     11 C12        -4.6560   -3.3610    2.7580 c         1 M5P      0.917600
     12 O2         -3.7460   -2.8750    3.4860 o         1 M5P     -0.839300
     13 O1         -5.4540   -4.2640    3.1360 o         1 M5P     -0.839300
     14 C11        -6.2410   -2.9080    0.8840 c3        1 M5P      0.066700
     15 S1         -6.3890   -2.7850   -0.8990 sh        1 M5P     -0.474900
     16 H1         -0.4720    1.0040   -0.8230 ha        1 M5P      0.142000
     17 H2          2.0130    1.0900   -0.7110 ha        1 M5P      0.118500
     18 H3          3.2120    0.1250    1.2530 ha        1 M5P      0.115000
     19 H4          1.9120   -0.9300    3.1040 ha        1 M5P      0.118500
     20 H5         -0.5800   -1.0190    2.9940 ha        1 M5P      0.142000
     21 H71        -2.5400    0.4820    0.1100 hc        1 M5P      0.040700
     22 H72        -2.5720    0.5300    1.9180 hc        1 M5P      0.040700
     23 H81        -2.3430   -1.9930    1.9820 hc        1 M5P      0.062200
     24 H82        -2.3720   -2.0140    0.1650 hc        1 M5P      0.062200
     25 H91        -4.6420   -0.9840    0.1820 hc        1 M5P      0.027200
     26 H92        -4.5700   -0.8160    1.9880 hc        1 M5P      0.027200
     27 H10        -4.1990   -3.5630    0.6600 hc        1 M5P      0.052700
     28 H111       -6.6780   -3.8760    1.2350 h1        1 M5P      0.068700
     29 H112       -6.8150   -2.0690    1.3420 h1        1 M5P      0.068700
     30 HS1        -7.5880   -3.3150   -1.0390 hs        1 M5P      0.180800
@<TRIPOS>BOND
     1    1    2 ar  
     2    1    6 ar  
     3    1   16 1   
     4    2    3 ar  
     5    2   17 1   
     6    3    4 ar  
     7    3   18 1   
     8    4    5 ar  
     9    4   19 1   
    10    5    6 ar  
    11    5   20 1   
    12    6    7 1   
    13    7    8 1   
    14    7   21 1   
    15    7   22 1   
    16    8    9 1   
    17    8   23 1   
    18    8   24 1   
    19    9   10 1   
    20    9   25 1   
    21    9   26 1   
    22   10   11 1   
    23   10   14 1   
    24   10   27 1   
    25   11   12 1   
    26   11   13 1   
    27   14   15 1   
    28   14   28 1   
    29   14   29 1   
    30   15   30 1   
@<TRIPOS>SUBSTRUCTURE
     1 M5P         1 TEMP              0 ****  ****    0 ROOT
