@<TRIPOS>MOLECULE
molecule
   43    44     1     0     0
SMALL
bcc


@<TRIPOS>ATOM
      1 C15          0.0000     0.0000     0.0000 c3         1 M5T       0.236400
      2 C10          3.2570     0.0000     1.5240 c3         1 M5T       0.316500
      3 C11          3.5400     0.0000     0.0000 c3         1 M5T       0.074100
      4 C12          2.3240     0.7800    -0.5560 c3         1 M5T       0.088100
      5 C13          1.2610     0.6640     0.5540 c3         1 M5T       0.121100
      6 C02          5.5110    -1.9370     3.7100 cc         1 M5T      -0.342400
      7 C03          4.8940    -0.8960     3.1120 cd         1 M5T      -0.063400
      8 N04          3.9260    -1.1290     2.1730 n          1 M5T      -0.338000
      9 C05          3.5840    -2.3870     1.8400 c          1 M5T       0.801500
     10 O06          2.7220    -2.5730     1.0030 o          1 M5T      -0.631500
     11 N07          4.1830    -3.4440     2.4210 ns         1 M5T      -0.565500
     12 C08          5.1450    -3.2560     3.3460 c          1 M5T       0.699700
     13 O09          5.6920    -4.2110     3.8680 o          1 M5T      -0.720500
     14 O14          1.8230    -0.1440     1.6030 os         1 M5T      -0.341600
     15 O16         -1.0190     0.0020     1.0020 os         1 M5T      -0.585200
     16 P17         -2.4860    -0.6190     0.7630 p5         1 M5T       1.442800
     17 O18         -2.3590    -2.0250     0.3210 o          1 M5T      -0.856000
     18 O19         -3.2510     0.2320    -0.3680 o          1 M5T      -0.856000
     19 O20         -3.3220    -0.5620     2.1380 os         1 M5T      -0.724800
     20 P21         -4.6190    -1.3400     2.6900 p5         1 M5T       1.518800
     21 O22         -5.9380    -0.7650     1.9680 o          1 M5T      -0.875500
     22 O23         -4.4880    -2.7850     2.4010 o          1 M5T      -0.875500
     23 O24         -4.7390    -1.1190     4.2800 os         1 M5T      -0.737800
     24 P25         -5.5030    -1.9010     5.4630 p5         1 M5T       1.348900
     25 O26         -5.6710    -0.9230     6.7310 o          1 M5T      -0.859500
     26 O27         -6.8390    -2.3280     4.9900 o          1 M5T      -0.859500
     27 O28         -4.6470    -3.1940     5.8920 o          1 M5T      -0.859500
     28 O29          2.6650     2.1490    -0.7820 oh         1 M5T      -0.597800
     29 O30          4.7610     0.6840    -0.2920 oh         1 M5T      -0.600800
     30 H1          -0.3450     0.5490    -0.8680 h1         1 M5T       0.029200
     31 H2           0.2250    -1.0210    -0.2840 h1         1 M5T       0.029200
     32 H4           3.5540    -1.0120    -0.3860 h1         1 M5T       0.080700
     33 H5           1.9660     0.3180    -1.4690 h1         1 M5T       0.050700
     34 H6           1.0260     1.6490     0.9390 h1         1 M5T       0.069700
     35 H7           6.2120    -2.0050     5.7190 hc         1 M5T       0.016700
     36 H8           7.4610    -2.2750     4.4950 hc         1 M5T       0.016700
     37 H9           6.8300    -0.6450     4.7700 hc         1 M5T       0.016700
     38 H11          3.9180    -4.3730     2.1600 hn         1 M5T       0.345500
     39 H16          2.4820     2.3750    -1.6790 ho         1 M5T       0.384000
     40 H17          5.2400     0.2050    -0.9480 ho         1 M5T       0.380000
     41 H3           3.5670     0.9390     1.9660 h2         1 M5T       0.070700
     42 C01          6.5780    -1.6990     4.7460 c3         1 M5T       0.015100
     43 H10          5.0940     0.1160     3.4430 h4         1 M5T       0.137000
@<TRIPOS>BOND
     1    28     4 1
     2    22    20 1
     3     4     5 1
     4     4     3 1
     5     5     1 1
     6     5    14 1
     7     1    15 1
     8    26    24 1
     9    23    20 1
    10    23    24 1
    11    25    24 1
    12    19    20 1
    13    19    16 1
    14    20    21 1
    15    24    27 1
    16    15    16 1
    17     3    29 1
    18     3     2 1
    19    14     2 1
    20    16    17 1
    21    16    18 1
    22     2     8 1
    23     8     7 1
    24     8     9 1
    25    10     9 2
    26     7     6 2
    27     9    11 1
    28     6    42 1
    29     6    12 1
    30    11    12 1
    31    12    13 2
    32     1    30 1
    33     1    31 1
    34     2    41 1
    35     3    32 1
    36     4    33 1
    37     5    34 1
    38    42    35 1
    39    42    36 1
    40    42    37 1
    41     7    43 1
    42    11    38 1
    43    28    39 1
    44    29    40 1
@<TRIPOS>SUBSTRUCTURE
     1 M5T         1 TEMP              0 ****  ****    0 ROOT
