@<TRIPOS>MOLECULE
molecule
   72    77     1     0     0
SMALL
bcc


@<TRIPOS>ATOM
      1 C            0.0000     0.0000     0.0000 ca         1 M61      -0.105300
      2 N            2.0840     0.0000     1.1180 nb         1 M61      -0.677000
      3 O           -1.3860     0.7450     4.0480 o          1 M61      -0.510100
      4 S           -1.9940    -4.6710     7.6950 s6         1 M61       1.545800
      5 C1           1.4000     0.0000     0.0000 ca         1 M61       0.431200
      6 C2           1.4890     0.0190     2.3170 ca         1 M61       0.492100
      7 C3           0.0790    -0.0250     2.3920 ca         1 M61      -0.257900
      8 C4          -0.6770    -0.0180     1.2160 ca         1 M61      -0.061000
      9 C5           2.3030     0.1150     3.5140 cc         1 M61      -0.210800
     10 C6           2.1230    -0.5140     4.6660 cd         1 M61      -0.094200
     11 C7           1.0670    -1.4550     4.9990 ca         1 M61      -0.026800
     12 C8          -0.2620    -1.2410     4.5790 ca         1 M61      -0.135600
     13 C9          -0.5870    -0.1060     3.7000 c          1 M61       0.604300
     14 C10          1.3680    -2.5970     5.7620 ca         1 M61      -0.101000
     15 C11          0.3800    -3.4630     6.1190 ca         1 M61      -0.155000
     16 C12         -0.9440    -3.2340     5.7390 ca         1 M61       0.136600
     17 C13         -1.2680    -2.1270     4.9740 ca         1 M61      -0.114000
     18 C14         -0.7520     0.0250    -1.2800 cc         1 M61      -0.275300
     19 C15         -3.6890    -2.9990     8.9790 c3         1 M61       0.233100
     20 N16         -2.3060    -3.3650     8.6650 n3         1 M61      -0.816500
     21 C17         -1.1980    -2.5750     9.2080 c3         1 M61       0.237800
     22 O18         -0.6770    -5.1010     8.0130 o          1 M61      -0.645300
     23 O19         -3.1310    -5.5180     7.7860 o          1 M61      -0.645300
     24 N20         -1.9440    -4.1220     6.1340 nu         1 M61      -0.778500
     25 C21         -0.9330    -1.3750     8.2980 c3         1 M61       0.070100
     26 C22          0.3020    -0.6180     8.7950 c3         1 M61       0.108400
     27 O23          0.4790     0.5630     8.0070 os         1 M61      -0.416600
     28 C24         -0.6510     1.4410     8.0320 c3         1 M61       0.099400
     29 C25         -1.8870     0.6850     7.5350 c3         1 M61       0.095400
     30 O26         -2.0620    -0.4970     8.3220 os         1 M61      -0.421600
     31 C27         -0.2110     0.0500    -2.5320 cd         1 M61      -0.090300
     32 N28         -1.2290     0.0670    -3.4150 na         1 M61       0.079400
     33 N29         -2.4310     0.0530    -2.6980 nd         1 M61      -0.508800
     34 C30         -2.1530     0.0210    -1.4220 cc         1 M61       0.349200
     35 C31         -1.1010     0.0950    -4.8750 c3         1 M61       0.078000
     36 C32         -0.9300    -1.3320    -5.4020 c3         1 M61      -0.094900
     37 C33         -0.7360    -1.2910    -6.9190 c3         1 M61       0.160300
     38 N34          0.4510    -0.4870    -7.2390 n7         1 M61      -0.821200
     39 C35          0.2910     0.9010    -6.7850 c3         1 M61       0.160300
     40 C36          0.1270     0.9250    -5.2640 c3         1 M61      -0.094900
     41 H1           1.9300     0.0140    -0.9450 h4         1 M61       0.023100
     42 H4          -1.7600    -0.0180     1.2510 ha         1 M61       0.149000
     43 H5           3.1580     0.7780     3.4600 ha         1 M61       0.146000
     44 H6           2.8430    -0.3030     5.4470 ha         1 M61       0.141000
     45 H10          2.3900    -2.7890     6.0650 ha         1 M61       0.146000
     46 H11          0.6220    -4.3330     6.7180 ha         1 M61       0.186000
     47 H13         -2.2950    -1.9500     4.6800 ha         1 M61       0.148000
     48 H15         -4.2050    -3.8590     9.3890 h1         1 M61       0.046367
     49 H15A        -3.6940    -2.1950     9.7040 h1         1 M61       0.046367
     50 H15B        -4.1910    -2.6740     8.0750 h1         1 M61       0.046367
     51 H17         -0.3090    -3.1910     9.2630 h1         1 M61       0.073200
     52 H17A        -1.4570    -2.2260    10.2010 h1         1 M61       0.073200
     53 HN20        -2.6050    -4.4610     5.4640 hn         1 M61       0.465800
     54 H21         -0.7630    -1.7140     7.2830 h1         1 M61       0.061700
     55 H22          1.1760    -1.2510     8.6980 h1         1 M61       0.054200
     56 H22A         0.1620    -0.3420     9.8330 h1         1 M61       0.054200
     57 H24         -0.8210     1.7820     9.0470 h1         1 M61       0.056200
     58 H24A        -0.4630     2.2900     7.3860 h1         1 M61       0.056200
     59 H25         -2.7610     1.3170     7.6330 h1         1 M61       0.066200
     60 H25A        -1.7480     0.4090     6.4970 h1         1 M61       0.066200
     61 H27          0.8450     0.0550    -2.7740 h4         1 M61       0.176000
     62 H30         -2.8740     0.0040    -0.6130 h4         1 M61       0.051100
     63 H31         -1.9880     0.5370    -5.3130 h1         1 M61       0.083700
     64 H32         -1.8150    -1.9110    -5.1670 hc         1 M61       0.061950
     65 H32A        -0.0620    -1.7850    -4.9390 hc         1 M61       0.061950
     66 H33         -0.5990    -2.2990    -7.2910 h1         1 M61       0.038950
     67 H33A        -1.6080    -0.8450    -7.3820 h1         1 M61       0.038950
     68 HN34         0.6060    -0.4990    -8.2280 hn         1 M61       0.360800
     69 H35         -0.5880     1.3310    -7.2480 h1         1 M61       0.038950
     70 H35A         1.1680     1.4730    -7.0610 h1         1 M61       0.038950
     71 H36          1.0100     0.5020    -4.8000 hc         1 M61       0.061950
     72 H36A        -0.0080     1.9470    -4.9330 hc         1 M61       0.061950
@<TRIPOS>BOND
     1     1     5 ar
     2     1     8 ar
     3     1    18 1
     4     2     5 ar
     5     2     6 ar
     6     3    13 2
     7     4    20 1
     8     4    22 2
     9     4    23 2
    10     4    24 1
    11     6     7 ar
    12     6     9 1
    13     7     8 ar
    14     7    13 1
    15     9    10 2
    16    10    11 1
    17    11    12 ar
    18    11    14 ar
    19    12    13 1
    20    12    17 ar
    21    14    15 ar
    22    15    16 ar
    23    16    17 ar
    24    16    24 1
    25    18    31 2
    26    18    34 1
    27    19    20 1
    28    20    21 1
    29    21    25 1
    30    25    26 1
    31    25    30 1
    32    26    27 1
    33    27    28 1
    34    28    29 1
    35    29    30 1
    36    31    32 1
    37    32    33 1
    38    32    35 1
    39    33    34 2
    40    35    36 1
    41    35    40 1
    42    36    37 1
    43    37    38 1
    44    38    39 1
    45    39    40 1
    46     5    41 1
    47     8    42 1
    48     9    43 1
    49    10    44 1
    50    14    45 1
    51    15    46 1
    52    17    47 1
    53    19    48 1
    54    19    49 1
    55    19    50 1
    56    21    51 1
    57    21    52 1
    58    24    53 1
    59    25    54 1
    60    26    55 1
    61    26    56 1
    62    28    57 1
    63    28    58 1
    64    29    59 1
    65    29    60 1
    66    31    61 1
    67    34    62 1
    68    35    63 1
    69    36    64 1
    70    36    65 1
    71    37    66 1
    72    37    67 1
    73    38    68 1
    74    39    69 1
    75    39    70 1
    76    40    71 1
    77    40    72 1
@<TRIPOS>SUBSTRUCTURE
     1 M61         1 TEMP              0 ****  ****    0 ROOT
