@<TRIPOS>MOLECULE
M62
   34    36     1     0     0
SMALL
bcc


@<TRIPOS>ATOM
      1 N01          0.0000     0.0000     0.0000 nb         1 M62      -0.577000
      2 N02          1.9940     0.0000    -1.2100 nv         1 M62      -0.663500
      3 C02          1.3170     0.0000     0.0000 ca         1 M62       0.506200
      4 C03          2.0510     0.0000     1.1950 ca         1 M62      -0.218300
      5 C04          1.3990    -0.0000     2.3910 ca         1 M62      -0.054000
      6 C05         -0.0100    -0.0000     2.3850 ca         1 M62      -0.149300
      7 C06         -0.7450    -0.0000     3.5810 ca         1 M62      -0.078000
      8 C07         -2.1060     0.0000     3.5360 ca         1 M62      -0.089000
      9 C08         -2.7800    -0.0010     2.3160 ca         1 M62      -0.115300
     10 C09         -2.1000    -0.0010     1.1380 ca         1 M62      -0.122300
     11 C10         -0.6940    -0.0000     1.1440 ca         1 M62       0.377600
     12 C11         -4.2870    -0.0010     2.3020 c3         1 M62       0.225100
     13 N12         -4.7760     1.3800     2.2970 nu         1 M62      -0.425600
     14 C21         -6.1500     1.6350     2.2850 ca         1 M62       0.091600
     15 C22         -7.0530     0.5800     2.2810 ca         1 M62      -0.211000
     16 C23         -8.4100     0.8340     2.2700 ca         1 M62      -0.022000
     17 C24         -8.8710     2.1370     2.2590 ca         1 M62      -0.199000
     18 C25         -7.9740     3.1920     2.2610 ca         1 M62       0.153900
     19 F27         -8.4280     4.4650     2.2510 f          1 M62      -0.132900
     20 C26         -6.6140     2.9440     2.2790 ca         1 M62      -0.222000
     21 H1           2.2260    -0.8670    -1.6540 hn         1 M62       0.278800
     22 H2           2.2260     0.8670    -1.6540 hn         1 M62       0.278800
     23 H3           3.1330    -0.0000     1.1670 ha         1 M62       0.118000
     24 H4           1.9500    -0.0000     3.3240 ha         1 M62       0.111000
     25 H5          -0.2320     0.0000     4.5350 ha         1 M62       0.109000
     26 H6          -2.6720     0.0000     4.4590 ha         1 M62       0.109000
     27 H7          -2.6390    -0.0020     0.1990 ha         1 M62       0.123000
     28 H8          -4.6400    -0.5120     1.4150 h1         1 M62       0.018700
     29 H9          -4.6560    -0.5120     3.1840 h1         1 M62       0.018700
     30 H10         -4.1260     2.1410     2.2980 hn         1 M62       0.298800
     31 H11         -6.6930    -0.4420     2.2900 ha         1 M62       0.117000
     32 H12         -9.1140     0.0110     2.2680 ha         1 M62       0.101000
     33 H13         -9.9370     2.3330     2.2500 ha         1 M62       0.119000
     34 H14         -5.9120     3.7690     2.2810 ha         1 M62       0.123000
@<TRIPOS>BOND
     1     1     3 ar  
     2     1    11 ar  
     3     2     3 1   
     4     2    21 1   
     5     2    22 1   
     6     3     4 ar  
     7     4     5 ar  
     8     4    23 1   
     9     5     6 ar  
    10     5    24 1   
    11     6     7 ar  
    12     6    11 ar  
    13     7     8 ar  
    14     7    25 1   
    15     8     9 ar  
    16     8    26 1   
    17     9    10 ar  
    18     9    12 1   
    19    10    11 ar  
    20    10    27 1   
    21    12    13 1   
    22    12    28 1   
    23    12    29 1   
    24    13    14 1   
    25    13    30 1   
    26    14    15 ar  
    27    14    20 ar  
    28    15    16 ar  
    29    15    31 1   
    30    16    17 ar  
    31    16    32 1   
    32    17    18 ar  
    33    17    33 1   
    34    18    19 1   
    35    18    20 ar  
    36    20    34 1   
@<TRIPOS>SUBSTRUCTURE
     1 M62         1 TEMP              0 ****  ****    0 ROOT
