@<TRIPOS>MOLECULE
M67
   73    75     1     0     0
SMALL
bcc


@<TRIPOS>ATOM
      1 C1           0.0000     0.0000     0.0000 c3         1 M67       0.013900
      2 C2           1.5300     0.0000     0.0000 c3         1 M67      -0.041400
      3 C3           2.0400     0.0000     1.4430 c3         1 M67       0.048000
      4 N4           3.5050     0.0000     1.4440 ns         1 M67      -0.194900
      5 C5           4.1780    -0.0000     2.6120 c          1 M67       0.569100
      6 O6           3.5710    -0.0000     3.6620 o          1 M67      -0.645100
      7 C7           5.6840     0.0000     2.6120 c3         1 M67       0.069800
      8 N8           6.1740    -0.0000     3.9970 n7         1 M67      -0.565200
      9 C9           7.6360    -0.1240     4.0400 c3         1 M67       0.050500
     10 C11          8.0280    -1.5960     3.9010 c3         1 M67      -0.033700
     11 C12          9.5520    -1.7240     3.9420 c3         1 M67      -0.049900
     12 C13          9.9440    -3.1970     3.8040 c3         1 M67      -0.017400
     13 C14          9.3340    -3.9980     4.9560 c3         1 M67      -0.028400
     14 C15          7.8110    -3.8690     4.9150 c3         1 M67      -0.017400
     15 C16          7.4190    -2.3970     5.0530 c3         1 M67      -0.049900
     16 C17          8.1490     0.4110     5.3520 c          1 M67       0.637100
     17 O18          9.2580     0.8970     5.4180 o          1 M67      -0.643100
     18 N19          7.3740     0.3500     6.4530 nj         1 M67      -0.155800
     19 C20          6.0590    -0.2140     6.7920 cy         1 M67       0.021000
     20 C21          5.9370     0.8620     7.8790 cy         1 M67      -0.053400
     21 C22          7.4730     0.8130     7.8460 cy         1 M67      -0.048300
     22 C24          8.0600    -0.2140     8.7790 c          1 M67       0.578100
     23 O25          8.3980    -1.2990     8.3530 o          1 M67      -0.613100
     24 N26          8.2130     0.0730    10.0870 ns         1 M67      -0.210900
     25 C27          8.7840    -0.9260    10.9940 c3         1 M67       0.100300
     26 C28          8.8440    -0.3610    12.3900 ca         1 M67      -0.056300
     27 C29          7.7730    -0.5310    13.2480 ca         1 M67      -0.053500
     28 C30          7.8220    -0.0150    14.5280 ca         1 M67      -0.073000
     29 C31          8.9550     0.6790    14.9530 ca         1 M67      -0.229900
     30 C32         10.0320     0.8460    14.0830 ca         1 M67      -0.073000
     31 C33          9.9730     0.3210    12.8080 ca         1 M67      -0.053500
     32 C34          9.0140     1.2350    16.3250 ce         1 M67       0.211800
     33 N35          8.0070     1.0780    17.1350 n2         1 M67      -0.486100
     34 N36         10.1350     1.9190    16.7420 nz         1 M67       0.189400
     35 H23         -0.3610    -0.8840     0.5110 hc         1 M67       0.005367
     36 H11C        -0.3610    -0.0010    -1.0210 hc         1 M67       0.005367
     37 H12C        -0.3610     0.8850     0.5100 hc         1 M67       0.005367
     38 H21C         1.8910    -0.8850    -0.5110 hc         1 M67       0.015200
     39 H22C         1.8910     0.8850    -0.5110 hc         1 M67       0.015200
     40 H31C         1.6790    -0.8850     1.9530 h1         1 M67       0.027700
     41 H32C         1.6780     0.8840     1.9540 h1         1 M67       0.027700
     42 H4           4.0060     0.0230     0.5780 hn         1 M67       0.174500
     43 H71C         6.0460    -0.8840     2.1010 h1         1 M67       0.025200
     44 H72C         6.0450     0.8850     2.1020 h1         1 M67       0.025200
     45 H8           5.8980     0.8490     4.4490 hn         1 M67       0.269800
     46 H9           8.0700     0.4430     3.2250 h1         1 M67       0.039700
     47 H11          7.6610    -1.9850     2.9590 hc         1 M67       0.033700
     48 H121         9.9200    -1.3410     4.8860 hc         1 M67       0.033450
     49 H122         9.9830    -1.1590     3.1250 hc         1 M67       0.033450
     50 H161         6.3390    -2.3080     5.0220 hc         1 M67       0.033450
     51 H162         7.7910    -2.0120     5.9950 hc         1 M67       0.033450
     52 H131         9.5720    -3.5810     2.8620 hc         1 M67       0.011950
     53 H132        11.0230    -3.2860     3.8350 hc         1 M67       0.011950
     54 H141         9.7030    -3.6110     5.8980 hc         1 M67       0.015200
     55 H142         9.6100    -5.0400     4.8550 hc         1 M67       0.015200
     56 H151         7.3800    -4.4340     5.7340 hc         1 M67       0.011950
     57 H152         7.4420    -4.2530     3.9720 hc         1 M67       0.011950
     58 H201         6.1220    -1.2170     7.1970 h1         1 M67       0.063200
     59 H202         5.3320    -0.0960     5.9980 h1         1 M67       0.063200
     60 H22          7.9230     1.7950     7.9270 h1         1 M67       0.048700
     61 H211         5.5130     0.4940     8.8060 hc         1 M67       0.037200
     62 H212         5.5270     1.7970     7.5170 hc         1 M67       0.037200
     63 H26          7.9720     0.9810    10.4310 hn         1 M67       0.174500
     64 H271         8.1630    -1.8140    10.9900 h1         1 M67       0.042700
     65 H272         9.7840    -1.1830    10.6650 h1         1 M67       0.042700
     66 H29          6.8940    -1.0700    12.9160 ha         1 M67       0.133500
     67 H33         10.8080     0.4500    12.1310 ha         1 M67       0.133500
     68 H30          6.9830    -0.1480    15.1990 ha         1 M67       0.100000
     69 H32         10.9160     1.3820    14.4090 ha         1 M67       0.100000
     70 H35          7.1930     0.5810    16.8320 hn         1 M67       0.381400
     71 H361        10.0070     2.2240    17.6870 hn         1 M67       0.222133
     72 H362        10.2800     2.7140    16.1520 hn         1 M67       0.222133
     73 H363        10.9320     1.3160    16.6910 hn         1 M67       0.222133
@<TRIPOS>BOND
     1     1     2 1   
     2     1    35 1   
     3     1    36 1   
     4     1    37 1   
     5     2     3 1   
     6     2    38 1   
     7     2    39 1   
     8     3     4 1   
     9     3    40 1   
    10     3    41 1   
    11     4     5 1   
    12     4    42 1   
    13     5     6 2   
    14     5     7 1   
    15     7     8 1   
    16     7    43 1   
    17     7    44 1   
    18     8     9 1   
    19     8    45 1   
    20     9    10 1   
    21     9    16 1   
    22     9    46 1   
    23    10    11 1   
    24    10    15 1   
    25    10    47 1   
    26    11    12 1   
    27    11    48 1   
    28    11    49 1   
    29    12    13 1   
    30    12    52 1   
    31    12    53 1   
    32    13    14 1   
    33    13    54 1   
    34    13    55 1   
    35    14    15 1   
    36    14    56 1   
    37    14    57 1   
    38    15    50 1   
    39    15    51 1   
    40    16    17 2   
    41    16    18 1   
    42    18    19 1   
    43    18    21 1   
    44    19    20 1   
    45    19    58 1   
    46    19    59 1   
    47    20    21 1   
    48    20    61 1   
    49    20    62 1   
    50    21    22 1   
    51    21    60 1   
    52    22    23 2   
    53    22    24 1   
    54    24    25 1   
    55    24    63 1   
    56    25    26 1   
    57    25    64 1   
    58    25    65 1   
    59    26    27 ar  
    60    26    31 ar  
    61    27    28 ar  
    62    27    66 1   
    63    28    29 ar  
    64    28    68 1   
    65    29    30 ar  
    66    29    32 1   
    67    30    31 ar  
    68    30    69 1   
    69    31    67 1   
    70    32    33 2   
    71    32    34 1   
    72    33    70 1   
    73    34    71 1   
    74    34    72 1   
    75    34    73 1   
@<TRIPOS>SUBSTRUCTURE
     1 M67         1 TEMP              0 ****  ****    0 ROOT
