@<TRIPOS>MOLECULE
molecule
   43    45     1     0     0
SMALL
bcc


@<TRIPOS>ATOM
      1 Cl           0.0000     0.0000     0.0000 cl         1 M68      -0.110400
      2 C23          1.7360     0.0000     0.0000 ca         1 M68       0.031400
      3 C24          2.4280     0.0000     1.1980 ca         1 M68      -0.125000
      4 C25          3.8100    -0.0010     1.1970 ca         1 M68      -0.117000
      5 C26          4.5000    -0.0010    -0.0010 ca         1 M68      -0.126000
      6 C22          2.4270    -0.0070    -1.1980 ca         1 M68      -0.118000
      7 C21          3.8110    -0.0020    -1.1980 ca         1 M68      -0.075300
      8 C15          4.5640    -0.0030    -2.5030 c3         1 M68      -0.036100
      9 C14          4.8190    -1.4450    -2.9440 c3         1 M68       0.160800
     10 N13          5.5530    -1.4460    -4.2160 n7         1 M68      -0.824200
     11 C12          5.8160    -2.8180    -4.6710 c3         1 M68       0.160800
     12 C11          6.5820    -2.7770    -5.9960 c3         1 M68      -0.038100
     13 C08          6.8510    -4.1850    -6.4630 ca         1 M68      -0.075300
     14 C07          5.9240    -4.8240    -7.2810 ca         1 M68      -0.125000
     15 C06          6.1400    -6.0960    -7.7200 ca         1 M68      -0.107000
     16 C09          8.0000    -4.8080    -6.0820 ca         1 M68      -0.166300
     17 C10          8.2580    -6.1210    -6.5140 ca         1 M68       0.432600
     18 N01          9.3790    -6.7560    -6.1550 nb         1 M68      -0.706000
     19 C05          7.3110    -6.7710    -7.3430 ca         1 M68      -0.165300
     20 C04          7.5700    -8.0870    -7.7770 ca         1 M68      -0.079000
     21 C03          8.7260    -8.6850    -7.3740 ca         1 M68      -0.257300
     22 C02          9.6260    -7.9850    -6.5570 ca         1 M68       0.690200
     23 N02         10.8020    -8.6040    -6.1610 nv         1 M68      -1.086500
     24 H24          1.8860     0.0000     2.1360 ha         1 M68       0.143000
     25 H22          1.8860    -0.0080    -2.1360 ha         1 M68       0.147000
     26 H25          4.3530    -0.0010     2.1350 ha         1 M68       0.137000
     27 H26          5.5840     0.0000    -0.0010 ha         1 M68       0.133000
     28 H151         3.9780     0.5070    -3.2580 hc         1 M68       0.057700
     29 H152         5.5100     0.5080    -2.3740 hc         1 M68       0.057700
     30 H141         3.8720    -1.9560    -3.0730 h1         1 M68       0.037200
     31 H142         5.4040    -1.9560    -2.1890 h1         1 M68       0.037200
     32 H13          6.4210    -0.9610    -4.1010 hn         1 M68       0.350800
     33 H121         6.4080    -3.3380    -3.9280 h1         1 M68       0.038200
     34 H122         4.8760    -3.3370    -4.8130 h1         1 M68       0.038200
     35 H111         5.9900    -2.2570    -6.7390 hc         1 M68       0.056700
     36 H112         7.5220    -2.2580    -5.8540 hc         1 M68       0.056700
     37 H07          5.0210    -4.3040    -7.5750 ha         1 M68       0.134000
     38 H09          8.7540    -4.2630    -5.5270 ha         1 M68       0.148000
     39 H06          5.4120    -6.5840    -8.3560 ha         1 M68       0.133000
     40 H04          6.8640    -8.6130    -8.4070 ha         1 M68       0.138000
     41 H03          8.9530    -9.6960    -7.6910 ha         1 M68       0.142000
     42 H021        11.6310    -8.5060    -6.7140 hn         1 M68       0.436800
     43 H022        10.8300    -9.1260    -5.3070 hn         1 M68       0.436800
@<TRIPOS>BOND
     1     1     2 1
     2     2     3 ar
     3     2     6 ar
     4     3     4 ar
     5     4     5 ar
     6     5     7 ar
     7     6     7 ar
     8     7     8 1
     9     8     9 1
    10     9    10 1
    11    10    11 1
    12    11    12 1
    13    12    13 1
    14    13    14 ar
    15    13    16 ar
    16    14    15 ar
    17    15    19 ar
    18    16    17 ar
    19    17    18 ar
    20    17    19 ar
    21    18    22 ar
    22    19    20 ar
    23    20    21 ar
    24    21    22 ar
    25    22    23 1
    26     3    24 1
    27     6    25 1
    28     4    26 1
    29     5    27 1
    30     8    28 1
    31     8    29 1
    32     9    30 1
    33     9    31 1
    34    10    32 1
    35    11    33 1
    36    11    34 1
    37    12    35 1
    38    12    36 1
    39    14    37 1
    40    16    38 1
    41    15    39 1
    42    20    40 1
    43    21    41 1
    44    23    42 1
    45    23    43 1
@<TRIPOS>SUBSTRUCTURE
     1 M68         1 TEMP              0 ****  ****    0 ROOT
