@<TRIPOS>MOLECULE
M68
   43    45     1     0     0
SMALL
bcc


@<TRIPOS>ATOM
      1 Cl           0.0000     0.0000     0.0000 cl         1 M68      -0.029400
      2 C23          1.7360     0.0000     0.0000 ca         1 M68      -0.030600
      3 C24          2.4280     0.0000     1.1980 ca         1 M68      -0.103000
      4 C25          3.8100    -0.0010     1.1970 ca         1 M68      -0.087000
      5 C26          4.5000    -0.0010    -0.0010 ca         1 M68      -0.099000
      6 C22          2.4270    -0.0070    -1.1980 ca         1 M68      -0.095000
      7 C21          3.8110    -0.0020    -1.1980 ca         1 M68      -0.079300
      8 C15          4.5640    -0.0030    -2.5030 c3         1 M68       0.028900
      9 C14          4.8190    -1.4450    -2.9440 c3         1 M68       0.145800
     10 N13          5.5530    -1.4460    -4.2160 n7         1 M68      -0.589200
     11 C12          5.8160    -2.8180    -4.6710 c3         1 M68       0.145800
     12 C11          6.5820    -2.7770    -5.9960 c3         1 M68       0.026900
     13 C08          6.8510    -4.1850    -6.4630 ca         1 M68      -0.082300
     14 C07          5.9240    -4.8240    -7.2810 ca         1 M68      -0.094000
     15 C06          6.1400    -6.0960    -7.7200 ca         1 M68      -0.079000
     16 C09          8.0000    -4.8080    -6.0820 ca         1 M68      -0.144300
     17 C10          8.2580    -6.1210    -6.5140 ca         1 M68       0.383600
     18 N01          9.3790    -6.7560    -6.1550 nb         1 M68      -0.580000
     19 C05          7.3110    -6.7710    -7.3430 ca         1 M68      -0.155300
     20 C04          7.5700    -8.0870    -7.7770 ca         1 M68      -0.052000
     21 C03          8.7260    -8.6850    -7.3740 ca         1 M68      -0.225300
     22 C02          9.6260    -7.9850    -6.5570 ca         1 M68       0.504200
     23 N02         10.8020    -8.6040    -6.1610 nv         1 M68      -0.663500
     24 H24          1.8860     0.0000     2.1360 ha         1 M68       0.114000
     25 H22          1.8860    -0.0080    -2.1360 ha         1 M68       0.119000
     26 H25          4.3530    -0.0010     2.1350 ha         1 M68       0.106000
     27 H26          5.5840     0.0000    -0.0010 ha         1 M68       0.107000
     28 H151         3.9780     0.5070    -3.2580 hc         1 M68       0.024700
     29 H152         5.5100     0.5080    -2.3740 hc         1 M68       0.024700
     30 H141         3.8720    -1.9560    -3.0730 h1         1 M68       0.010700
     31 H142         5.4040    -1.9560    -2.1890 h1         1 M68       0.010700
     32 H13          6.4210    -0.9610    -4.1010 hn         1 M68       0.252800
     33 H121         6.4080    -3.3380    -3.9280 h1         1 M68       0.011200
     34 H122         4.8760    -3.3370    -4.8130 h1         1 M68       0.011200
     35 H111         5.9900    -2.2570    -6.7390 hc         1 M68       0.023700
     36 H112         7.5220    -2.2580    -5.8540 hc         1 M68       0.023700
     37 H07          5.0210    -4.3040    -7.5750 ha         1 M68       0.108000
     38 H09          8.7540    -4.2630    -5.5270 ha         1 M68       0.120000
     39 H06          5.4120    -6.5840    -8.3560 ha         1 M68       0.107000
     40 H04          6.8640    -8.6130    -8.4070 ha         1 M68       0.109000
     41 H03          8.9530    -9.6960    -7.6910 ha         1 M68       0.116000
     42 H021        11.6310    -8.5060    -6.7140 hn         1 M68       0.276800
     43 H022        10.8300    -9.1260    -5.3070 hn         1 M68       0.276800
@<TRIPOS>BOND
     1     1     2 1   
     2     2     3 ar  
     3     2     6 ar  
     4     3     4 ar  
     5     3    24 1   
     6     4     5 ar  
     7     4    26 1   
     8     5     7 ar  
     9     5    27 1   
    10     6     7 ar  
    11     6    25 1   
    12     7     8 1   
    13     8     9 1   
    14     8    28 1   
    15     8    29 1   
    16     9    10 1   
    17     9    30 1   
    18     9    31 1   
    19    10    11 1   
    20    10    32 1   
    21    11    12 1   
    22    11    33 1   
    23    11    34 1   
    24    12    13 1   
    25    12    35 1   
    26    12    36 1   
    27    13    14 ar  
    28    13    16 ar  
    29    14    15 ar  
    30    14    37 1   
    31    15    19 ar  
    32    15    39 1   
    33    16    17 ar  
    34    16    38 1   
    35    17    18 ar  
    36    17    19 ar  
    37    18    22 ar  
    38    19    20 ar  
    39    20    21 ar  
    40    20    40 1   
    41    21    22 ar  
    42    21    41 1   
    43    22    23 1   
    44    23    42 1   
    45    23    43 1   
@<TRIPOS>SUBSTRUCTURE
     1 M68         1 TEMP              0 ****  ****    0 ROOT
