@<TRIPOS>MOLECULE
molecule
   27    27     1     0     0
SMALL
bcc


@<TRIPOS>ATOM
      1 C1           0.0000     0.0000     0.0000 c3         1 M6D       0.334900
      2 C2           1.5310     0.0000     0.0000 c3         1 M6D       0.110100
      3 C3           2.0340     0.0000     1.4470 c3         1 M6D       0.110100
      4 C4           1.4510     1.2130     2.1790 c3         1 M6D       0.111100
      5 C5          -0.0760     1.1650     2.0950 c3         1 M6D       0.139100
      6 C6          -0.6640     2.4050     2.7720 c3         1 M6D       0.234400
      7 O1          -0.4770     0.0570    -1.3460 oh         1 M6D      -0.595800
      8 O2           2.0080     1.1690    -0.6710 oh         1 M6D      -0.559800
      9 O3           3.4610     0.0740     1.4570 oh         1 M6D      -0.605800
     10 O4           1.8560     1.1830     3.5490 oh         1 M6D      -0.599800
     11 O5          -0.4750     1.1370     0.7230 os         1 M6D      -0.372600
     12 O6          -2.0890     2.3040     2.7960 os         1 M6D      -0.569200
     13 P           -3.0370     3.4370     3.4370 p5         1 M6D       1.178900
     14 O1P         -4.5800     3.0570     3.1730 o          1 M6D      -0.909167
     15 O2P         -2.7700     3.5270     5.0220 o          1 M6D      -0.909167
     16 O3P         -2.7370     4.7440     2.8110 o          1 M6D      -0.909167
     17 H1          -0.3590    -0.9040     0.4770 h2         1 M6D       0.010700
     18 H2           1.8920    -0.8870    -0.5070 h1         1 M6D       0.012700
     19 H3           1.7100    -0.9080     1.9400 h1         1 M6D       0.038700
     20 H4           1.8090     2.1220     1.7110 h1         1 M6D       0.073700
     21 H5          -0.4360     0.2720     2.5920 h1         1 M6D       0.042700
     22 H6          -0.2890     2.4740     3.7860 h1         1 M6D       0.031200
     23 H6A         -0.3730     3.2900     2.2190 h1         1 M6D       0.031200
     24 HO1         -1.2890    -0.4180    -1.4120 ho         1 M6D       0.404000
     25 HO2          2.4850     0.9150    -1.4430 ho         1 M6D       0.385000
     26 HO3          3.8160    -0.7540     1.7340 ho         1 M6D       0.383000
     27 HO4          2.5210     1.8350     3.6950 ho         1 M6D       0.399000
@<TRIPOS>BOND
     1     2     1 1
     2     7     1 1
     3     1    11 1
     4     1    17 1
     5     8     2 1
     6     2     3 1
     7     2    18 1
     8     9     3 1
     9     3     4 1
    10     3    19 1
    11     4    10 1
    12     4     5 1
    13     4    20 1
    14    11     5 1
    15     5     6 1
    16     5    21 1
    17     6    12 1
    18     6    22 1
    19     6    23 1
    20     7    24 1
    21     8    25 1
    22     9    26 1
    23    10    27 1
    24    12    13 1
    25    16    13 1
    26    13    14 1
    27    13    15 1
@<TRIPOS>SUBSTRUCTURE
     1 M6D         1 TEMP              0 ****  ****    0 ROOT
