@<TRIPOS>MOLECULE
M6D
   27    27     1     0     0
SMALL
bcc


@<TRIPOS>ATOM
      1 C1          0.1100   -0.2580   -0.1640 c3        1 M6D      0.320900
      2 C2          1.6390   -0.2900    0.0580 c3        1 M6D      0.099100
      3 C3          1.9070    0.0300    1.5250 c3        1 M6D      0.017100
      4 C4          1.2280    1.3870    1.9720 c3        1 M6D      0.371800
      5 C5         -0.2870    1.2260    1.6650 c3        1 M6D      0.053100
      6 C6         -1.0630    2.5200    1.9480 c3        1 M6D      0.198400
      7 O1         -0.2090   -0.2930   -1.5370 oh        1 M6D     -0.624800
      8 O2          2.2640    0.5970   -0.8570 oh        1 M6D     -0.628800
      9 O3          3.3060    0.0980    1.7480 oh        1 M6D     -0.647800
     10 O4          1.5280    1.6640    3.2200 o         1 M6D     -0.866500
     11 O5         -0.4820    0.9520    0.2570 os        1 M6D     -0.467600
     12 O6         -2.1820    2.2570    2.7380 os        1 M6D     -0.592200
     13 P          -2.2560    3.0240    4.2040 p5        1 M6D      1.438800
     14 O1P        -3.5530    2.6770    4.8290 o         1 M6D     -0.858000
     15 O2P        -1.0690    2.2110    4.9530 oh        1 M6D     -0.812400
     16 O3P        -1.8160    4.4210    3.9820 o         1 M6D     -0.858000
     17 H1         -0.3890   -1.1500    0.3040 h2        1 M6D      0.048700
     18 H2          2.0380   -1.3030   -0.2260 h1        1 M6D      0.038700
     19 H3          1.4970   -0.8090    2.1510 h1        1 M6D      0.021700
     20 H4          1.6140    2.1700    1.2280 h1        1 M6D     -0.098300
     21 H5         -0.7210    0.3790    2.2580 h1        1 M6D      0.043700
     22 H6         -0.3840    3.2560    2.4640 h1        1 M6D      0.035200
     23 H6A        -1.4130    2.9580    0.9690 h1        1 M6D      0.035200
     24 HO1         0.1680    0.5080   -1.9240 ho        1 M6D      0.411000
     25 HO2         2.2860    1.4640   -0.4310 ho        1 M6D      0.419000
     26 HO3         3.4090    0.7510    2.4610 ho        1 M6D      0.428000
     27 HO4        -0.2530    2.1170    4.4580 ho        1 M6D      0.474000
@<TRIPOS>BOND
     1    1    2 1   
     2    1    7 1   
     3    1   11 1   
     4    1   17 1   
     5    2    3 1   
     6    2    8 1   
     7    2   18 1   
     8    3    4 1   
     9    3    9 1   
    10    3   19 1   
    11    4    5 1   
    12    4   10 1   
    13    4   20 1   
    14    5    6 1   
    15    5   11 1   
    16    5   21 1   
    17    6   12 1   
    18    6   22 1   
    19    6   23 1   
    20    7   24 1   
    21    8   25 1   
    22    9   26 1   
    23   12   13 1   
    24   13   14 1   
    25   13   15 1   
    26   13   16 1   
    27   15   27 1   
@<TRIPOS>SUBSTRUCTURE
     1 M6D         1 TEMP              0 ****  ****    0 ROOT
