@<TRIPOS>MOLECULE
M6R
   30    29     1     0     0
SMALL
bcc


@<TRIPOS>ATOM
      1 O61         0.3570    0.9350    0.6040 o         1 M6R     -0.851000
      2 P6          1.7810    0.7660    0.2430 p5        1 M6R      1.433800
      3 O62         2.7660   -0.0090    1.0300 o         1 M6R     -0.851000
      4 O63         1.8930    0.1410   -1.2650 oh        1 M6R     -0.786400
      5 O6          2.4010    2.2560   -0.0590 os        1 M6R     -0.609200
      6 C6          3.7640    2.3530   -0.3810 c3        1 M6R      0.166400
      7 C5          3.9300    3.0590   -1.7330 c3        1 M6R      0.069100
      8 O5          3.1610    4.2600   -1.7640 oh        1 M6R     -0.644800
      9 C4          5.4240    3.4220   -1.9900 c3        1 M6R      0.371800
     10 O4          6.2290    2.3690   -1.9990 o         1 M6R     -0.907500
     11 C3          5.4970    4.1570   -3.3830 c3        1 M6R      0.046100
     12 O3          5.5920    3.2000   -4.4250 oh        1 M6R     -0.660800
     13 C2          6.7580    5.0550   -3.4740 c3        1 M6R      0.108500
     14 N2          7.9910    4.3690   -3.0980 n3        1 M6R     -0.914800
     15 C1          6.5320    6.3350   -2.6580 c3        1 M6R      0.137400
     16 O1          7.4840    7.3480   -2.9610 oh        1 M6R     -0.647800
     17 H61         4.2390    1.3370   -0.4130 h1        1 M6R      0.033700
     18 H62         4.2680    2.9710    0.4140 h1        1 M6R      0.033700
     19 H5          3.5610    2.3840   -2.5540 h1        1 M6R      0.018700
     20 HO5         2.3290    4.0560   -1.3180 ho        1 M6R      0.401000
     21 H4          5.6930    4.2050   -1.2070 h1        1 M6R     -0.076300
     22 HO4         2.7850   -0.0960   -1.4920 ho        1 M6R      0.425000
     23 H3          4.5790    4.7640   -3.5890 h1        1 M6R      0.044700
     24 HO3         5.8740    2.3680   -4.0010 ho        1 M6R      0.428000
     25 H2          6.8830    5.3660   -4.5560 h1        1 M6R      0.027700
     26 HN21        7.8920    4.0430   -2.1480 hn        1 M6R      0.355800
     27 HN22        8.0450    3.5370   -3.6630 hn        1 M6R      0.355800
     28 H11         6.5580    6.1260   -1.5560 h1        1 M6R      0.045200
     29 H12         5.5410    6.7860   -2.9270 h1        1 M6R      0.045200
     30 HO1         8.3500    6.9270   -2.9690 ho        1 M6R      0.401000
@<TRIPOS>BOND
     1    1    2 1   
     2    2    3 1   
     3    2    4 1   
     4    2    5 1   
     5    4   22 1   
     6    5    6 1   
     7    6    7 1   
     8    6   17 1   
     9    6   18 1   
    10    7    8 1   
    11    7    9 1   
    12    7   19 1   
    13    8   20 1   
    14    9   10 1   
    15    9   11 1   
    16    9   21 1   
    17   11   12 1   
    18   11   13 1   
    19   11   23 1   
    20   12   24 1   
    21   13   14 1   
    22   13   15 1   
    23   13   25 1   
    24   14   26 1   
    25   14   27 1   
    26   15   16 1   
    27   15   28 1   
    28   15   29 1   
    29   16   30 1   
@<TRIPOS>SUBSTRUCTURE
     1 M6R         1 TEMP              0 ****  ****    0 ROOT
