@<TRIPOS>MOLECULE
molecule
   31    30     1     0     0
SMALL
bcc


@<TRIPOS>ATOM
      1 O61          0.0000     0.0000     0.0000 o          1 M6R      -0.833167
      2 P6           1.6100     0.0000     0.0000 p5         1 M6R       1.174900
      3 O62          2.1460     0.0000     1.5190 o          1 M6R      -0.833167
      4 O63          2.1020     1.2090    -0.6970 o          1 M6R      -0.833167
      5 O6           2.1470    -1.3140    -0.7590 os         1 M6R      -0.569200
      6 C6           3.5310    -1.5520    -1.0170 c3         1 M6R       0.209400
      7 C5           3.6920    -2.8850    -1.7510 c3         1 M6R       0.120100
      8 O5           3.0760    -2.7970    -3.0380 oh         1 M6R      -0.636800
      9 C4           5.1800    -3.2000    -1.9180 c3         1 M6R       0.132100
     10 O4           5.7940    -3.2880    -0.6310 oh         1 M6R      -0.586800
     11 C3           5.3400    -4.5330    -2.6520 c3         1 M6R       0.132100
     12 O3           4.6160    -5.5500    -1.9550 oh         1 M6R      -0.555800
     13 C2           6.8210    -4.9090    -2.7080 c3         1 M6R       0.063500
     14 N2           7.5650    -3.8640    -3.4220 nz         1 M6R      -0.804600
     15 C1           6.9820    -6.2430    -3.4410 c3         1 M6R       0.118400
     16 O1           8.3500    -6.6510    -3.3930 oh         1 M6R      -0.629800
     17 H61          4.0720    -1.5880    -0.0800 h1         1 M6R       0.023200
     18 H62          3.9270    -0.7520    -1.6310 h1         1 M6R       0.023200
     19 H5           3.2180    -3.6720    -1.1770 h1         1 M6R       0.071700
     20 HO5          2.2080    -3.1620    -2.9970 ho         1 M6R       0.427000
     21 H4           5.6540    -2.4130    -2.4910 h1         1 M6R       0.020700
     22 HO4          6.3140    -2.5160    -0.4770 ho         1 M6R       0.409000
     23 H3           4.9520    -4.4400    -3.6590 h1         1 M6R       0.057700
     24 HO3          4.0890    -6.0360    -2.5670 ho         1 M6R       0.406000
     25 H2           7.2080    -5.0030    -1.7000 hx         1 M6R       0.136700
     26 HN21         8.5110    -4.1620    -3.5600 hn         1 M6R       0.409467
     27 HN22         7.5570    -3.0210    -2.8830 hn         1 M6R       0.409467
     28 H11          6.6760    -6.1260    -4.4740 h1         1 M6R       0.050700
     29 H12          6.3640    -6.9940    -2.9650 h1         1 M6R       0.050700
     30 HO1          8.4220    -7.5440    -3.6860 ho         1 M6R       0.427000
     31 H23          7.1310    -3.6910    -4.3070 hn         1 M6R       0.409467
@<TRIPOS>BOND
     1     1     2 1
     2     2     3 1
     3     2     5 1
     4     2     4 1
     5     5     6 1
     6     6     7 1
     7     6    17 1
     8     6    18 1
     9     7     8 1
    10     7     9 1
    11     7    19 1
    12     8    20 1
    13     9    11 1
    14     9    10 1
    15     9    21 1
    16    10    22 1
    17    11    13 1
    18    11    12 1
    19    11    23 1
    20    12    24 1
    21    13    14 1
    22    13    15 1
    23    13    25 1
    24    14    26 1
    25    14    27 1
    26    15    16 1
    27    15    28 1
    28    15    29 1
    29    16    30 1
    30    31    14 1
@<TRIPOS>SUBSTRUCTURE
     1 M6R         1 TEMP              0 ****  ****    0 ROOT
