@<TRIPOS>MOLECULE
M6S
   67    69     1     0     0
SMALL
bcc


@<TRIPOS>ATOM
      1 C1           0.0000     0.0000     0.0000 c3         1 M6S      -0.037700
      2 C2           1.5300     0.0000     0.0000 c3         1 M6S      -0.041900
      3 C3           2.0390     0.0000     1.4430 c3         1 M6S      -0.020900
      4 C4           1.5290     1.2500     2.1640 c3         1 M6S      -0.026400
      5 C5          -0.0010     1.2500     2.1630 c3         1 M6S      -0.020900
      6 C6          -0.5100     1.2490     0.7200 c3         1 M6S      -0.041900
      7 N7          -1.9720    -0.1390    -1.4460 n7         1 M6S      -0.530200
      8 C8          -0.5100    -0.0010    -1.4430 c3         1 M6S       0.053500
      9 C9          -0.1260     1.2940    -2.1120 c          1 M6S       0.622100
     10 O0          -0.9060     2.2220    -2.1290 o          1 M6S      -0.576100
     11 N11          1.0850     1.4210    -2.6900 nj         1 M6S      -0.189800
     12 C12          1.8340     2.4990    -3.3510 cy         1 M6S      -0.034300
     13 C13          0.9740     3.3920    -4.2070 c          1 M6S       0.558100
     14 O14         -0.2170     3.1810    -4.2960 o          1 M6S      -0.568100
     15 N15          1.5270     4.4240    -4.8750 ns         1 M6S      -0.221900
     16 C16          0.6890     5.2920    -5.7070 c3         1 M6S       0.102300
     17 C17          1.5450     6.3590    -6.3380 ca         1 M6S      -0.053300
     18 C18          2.1320     6.1330    -7.5700 ca         1 M6S      -0.055000
     19 C19          2.9160     7.1070    -8.1530 ca         1 M6S      -0.073500
     20 C20          3.1170     8.3220    -7.4980 ca         1 M6S      -0.231900
     21 C21          2.5220     8.5440    -6.2570 ca         1 M6S      -0.073500
     22 C22          1.7350     7.5640    -5.6860 ca         1 M6S      -0.055000
     23 C23          3.9580     9.3710    -8.1180 ce         1 M6S       0.212800
     24 N24          4.5120     9.1600    -9.2770 n2         1 M6S      -0.488100
     25 N25          4.1540    10.5690    -7.4680 nz         1 M6S       0.190400
     26 C26          2.5780     1.4200    -4.1500 cy         1 M6S      -0.057400
     27 C27          2.2400     0.5430    -2.9330 cy         1 M6S       0.048000
     28 C28         -2.3690    -1.5430    -1.2820 c3         1 M6S       0.065800
     29 C29         -3.8640    -1.6630    -1.4190 c          1 M6S       0.562100
     30 O30         -4.5350    -0.6740    -1.6330 o          1 M6S      -0.622100
     31 C10         -5.9120    -2.9830    -1.4390 c3         1 M6S       0.088300
     32 N2          -4.4580    -2.8680    -1.3050 ns         1 M6S      -0.199900
     33 H1          -0.3590    -0.8830     0.5150 hc         1 M6S       0.038700
     34 H21C         1.8890    -0.8860    -0.5090 hc         1 M6S       0.025950
     35 H22C         1.8890     0.8860    -0.5090 hc         1 M6S       0.025950
     36 H61C        -0.1470     2.1330     0.2090 hc         1 M6S       0.025950
     37 H62C        -1.5940     1.2460     0.7210 hc         1 M6S       0.025950
     38 H8          -0.0680    -0.8310    -1.9810 h1         1 M6S       0.009700
     39 H31C         3.1230     0.0020     1.4420 hc         1 M6S       0.014450
     40 H32C         1.6750    -0.8840     1.9530 hc         1 M6S       0.014450
     41 H41C         1.8880     1.2470     3.1860 hc         1 M6S       0.011700
     42 H42C         1.8900     2.1330     1.6520 hc         1 M6S       0.011700
     43 H51C        -0.3600     2.1370     2.6710 hc         1 M6S       0.014450
     44 H52C        -0.3610     0.3650     2.6730 hc         1 M6S       0.014450
     45 H7          -2.3390     0.2130    -2.3080 hn         1 M6S       0.288800
     46 H281        -2.0670    -1.8910    -0.3010 h1         1 M6S       0.017200
     47 H282        -1.8870    -2.1460    -2.0420 h1         1 M6S       0.017200
     48 H12          2.4840     3.0340    -2.6690 h1         1 M6S       0.044700
     49 H271         1.9540    -0.4660    -3.2050 h1         1 M6S       0.033200
     50 H272         2.9870     0.6020    -2.1500 h1         1 M6S       0.033200
     51 H261         3.6380     1.6170    -4.2590 hc         1 M6S       0.039700
     52 H262         2.0640     1.1200    -5.0550 hc         1 M6S       0.039700
     53 H15          2.5060     4.6090    -4.7870 hn         1 M6S       0.170500
     54 H161         0.2160     4.7020    -6.4830 h1         1 M6S       0.043200
     55 H162        -0.0720     5.7560    -5.0920 h1         1 M6S       0.043200
     56 H18          1.9760     5.1890    -8.0770 ha         1 M6S       0.134000
     57 H22          1.2720     7.7360    -4.7220 ha         1 M6S       0.134000
     58 H19          3.3760     6.9280    -9.1180 ha         1 M6S       0.099000
     59 H21          2.6710     9.4860    -5.7440 ha         1 M6S       0.099000
     60 H24          4.3710     8.2890    -9.7500 hn         1 M6S       0.381400
     61 H251         3.2710    11.0200    -7.3270 hn         1 M6S       0.222133
     62 H252         4.5890    10.4020    -6.5830 hn         1 M6S       0.222133
     63 H2          -3.9060    -3.6830    -1.1280 hn         1 M6S       0.167500
     64 H101        -6.2070    -4.0160    -1.2970 h1         1 M6S       0.010700
     65 H102        -6.3940    -2.3650    -0.6920 h1         1 M6S       0.010700
     66 H103        -6.2120    -2.6550    -2.4270 h1         1 M6S       0.010700
     67 H253         4.7370    11.1600    -8.0270 hn         1 M6S       0.222133
@<TRIPOS>BOND
     1     1     2 1   
     2     1     6 1   
     3     1     8 1   
     4     1    33 1   
     5     2     3 1   
     6     2    34 1   
     7     2    35 1   
     8     3     4 1   
     9     3    39 1   
    10     3    40 1   
    11     4     5 1   
    12     4    41 1   
    13     4    42 1   
    14     5     6 1   
    15     5    43 1   
    16     5    44 1   
    17     6    36 1   
    18     6    37 1   
    19     7     8 1   
    20     7    28 1   
    21     7    45 1   
    22     8     9 1   
    23     8    38 1   
    24     9    10 2   
    25     9    11 1   
    26    11    12 1   
    27    11    27 1   
    28    12    13 1   
    29    12    26 1   
    30    12    48 1   
    31    13    14 2   
    32    13    15 1   
    33    15    16 1   
    34    15    53 1   
    35    16    17 1   
    36    16    54 1   
    37    16    55 1   
    38    17    18 ar  
    39    17    22 ar  
    40    18    19 ar  
    41    18    56 1   
    42    19    20 ar  
    43    19    58 1   
    44    20    21 ar  
    45    20    23 1   
    46    21    22 ar  
    47    21    59 1   
    48    22    57 1   
    49    23    24 2   
    50    23    25 1   
    51    24    60 1   
    52    25    61 1   
    53    25    62 1   
    54    25    67 1   
    55    26    27 1   
    56    26    51 1   
    57    26    52 1   
    58    27    49 1   
    59    27    50 1   
    60    28    29 1   
    61    28    46 1   
    62    28    47 1   
    63    29    30 2   
    64    29    32 1   
    65    31    32 1   
    66    31    64 1   
    67    31    65 1   
    68    31    66 1   
    69    32    63 1   
@<TRIPOS>SUBSTRUCTURE
     1 M6S         1 TEMP              0 ****  ****    0 ROOT
