@<TRIPOS>MOLECULE
molecule
   45    46     1     0     0
SMALL
bcc


@<TRIPOS>ATOM
      1 N1'          0.0000     0.0000     0.0000 nb         1 M6T      -0.766000
      2 C2'          1.3400     0.0000     0.0000 ca         1 M6T       0.698300
      3 CM2          2.0130     0.1980    -1.2900 c3         1 M6T      -0.133400
      4 N3'          2.0240     0.0000     1.1120 nb         1 M6T      -0.770000
      5 C4'          1.3740    -0.2900     2.2750 ca         1 M6T       0.754200
      6 N4'          2.1110    -0.3390     3.3470 nv         1 M6T      -1.046500
      7 C5'         -0.0370    -0.3890     2.3260 ca         1 M6T      -0.375900
      8 C6'         -0.6860    -0.1760     1.1510 ca         1 M6T       0.478600
      9 C7'         -0.7900    -0.5380     3.6330 c3         1 M6T       0.112600
     10 N3          -0.5580    -1.9130     4.1930 na         1 M6T       0.007900
     11 C2           0.2540    -2.1540     5.2340 cc         1 M6T      -0.350400
     12 S1           0.3020    -3.7980     5.6460 ss         1 M6T       0.067200
     13 C5          -0.6660    -4.1330     4.2590 cc         1 M6T      -0.109400
     14 C4          -1.2360    -2.9900     3.7960 cd         1 M6T      -0.073600
     15 CM4         -2.3500    -2.9040     2.8180 c3         1 M6T      -0.027800
     16 CM6         -2.1510     0.0190     1.0970 c3         1 M6T      -0.158400
     17 C6          -1.0110    -5.5400     3.8790 c3         1 M6T      -0.025100
     18 C7          -0.3330    -6.5770     4.7510 c3         1 M6T       0.190400
     19 O7          -0.5100    -7.8710     4.1630 os         1 M6T      -0.561200
     20 PA           0.6870    -8.8550     4.2280 p5         1 M6T       1.497800
     21 O1A          1.8080    -8.5240     3.3250 o          1 M6T      -0.841500
     22 O2A          0.0940   -10.2070     3.9650 o          1 M6T      -0.841500
     23 O3A          1.2590    -8.9280     5.7220 os         1 M6T      -0.756800
     24 PB           0.9710    -9.8580     6.9680 p5         1 M6T       1.459900
     25 O1B          0.9480   -11.2120     6.3270 o          1 M6T      -0.762167
     26 O2B         -0.3570    -9.3880     7.3430 o          1 M6T      -0.762167
     27 O3B          2.0010    -9.6440     7.9740 o          1 M6T      -0.762167
     28 HM21         2.6830     1.0470    -1.2210 hc         1 M6T       0.057367
     29 HM22         2.5800    -0.6900    -1.5420 hc         1 M6T       0.057367
     30 HM23         1.2720     0.3840    -2.0580 hc         1 M6T       0.057367
     31 HN41         2.6900    -1.1370     3.5200 hn         1 M6T       0.450300
     32 HN42         2.0880     0.4150     4.0050 hn         1 M6T       0.450300
     33 H7'1        -1.8490    -0.3940     3.4590 h1         1 M6T       0.058200
     34 H7'2        -0.4360     0.2030     4.3390 h1         1 M6T       0.058200
     35 H2           0.7450    -1.3760     5.8060 h5         1 M6T       0.163000
     36 HM41        -1.9470    -2.8710     1.8130 hc         1 M6T       0.047033
     37 HM42        -2.9900    -3.7720     2.9220 hc         1 M6T       0.047033
     38 HM43        -2.9270    -2.0060     3.0050 hc         1 M6T       0.047033
     39 HM61        -2.4680     0.6080     1.9490 hc         1 M6T       0.055367
     40 HM62        -2.4120     0.5380     0.1830 hc         1 M6T       0.055367
     41 HM63        -2.6440    -0.9440     1.1200 hc         1 M6T       0.055367
     42 H61         -0.7140    -5.7040     2.8500 hc         1 M6T       0.058700
     43 H62         -2.0840    -5.6680     3.9560 hc         1 M6T       0.058700
     44 H71          0.7240    -6.3530     4.8240 h1         1 M6T       0.040200
     45 H72         -0.7760    -6.5640     5.7400 h1         1 M6T       0.040200
@<TRIPOS>BOND
     1     1     2 ar
     2     1     8 ar
     3     2     3 1
     4     2     4 ar
     5     3    28 1
     6     3    29 1
     7     3    30 1
     8     4     5 ar
     9     5     6 1
    10     5     7 ar
    11     6    31 1
    12     6    32 1
    13     7     8 ar
    14     7     9 1
    15     8    16 1
    16     9    10 1
    17     9    33 1
    18     9    34 1
    19    10    11 2
    20    10    14 1
    21    11    12 1
    22    11    35 1
    23    12    13 1
    24    13    14 2
    25    13    17 1
    26    14    15 1
    27    15    36 1
    28    15    37 1
    29    15    38 1
    30    16    39 1
    31    16    40 1
    32    16    41 1
    33    17    18 1
    34    17    42 1
    35    17    43 1
    36    18    19 1
    37    18    44 1
    38    18    45 1
    39    19    20 1
    40    20    21 1
    41    20    22 1
    42    20    23 1
    43    23    24 1
    44    24    25 1
    45    24    26 1
    46    24    27 1
@<TRIPOS>SUBSTRUCTURE
     1 M6T         1 TEMP              0 ****  ****    0 ROOT
