@<TRIPOS>MOLECULE
M72
   25    25     1     0     0
SMALL
bcc


@<TRIPOS>ATOM
      1 O3         -0.1340   -0.9330   -1.4270 o         1 M72     -0.832300
      2 C           0.8230   -0.9590   -0.6020 c         1 M72      0.890600
      3 O           0.7960   -1.5020    0.5350 o         1 M72     -0.832300
      4 CA          2.1450   -0.2790   -1.0550 c3        1 M72     -0.004900
      5 OA          1.9240    0.6130   -2.1270 oh        1 M72     -0.621800
      6 CB          3.1740   -1.3790   -1.4070 c3        1 M72      0.163400
      7 CG          3.6820   -1.3310   -2.8160 ca        1 M72     -0.035300
      8 CD2         2.7700   -1.5550   -3.8590 ca        1 M72     -0.115000
      9 CE2         3.2060   -1.5610   -5.1810 ca        1 M72     -0.145500
     10 CZ          4.5520   -1.3440   -5.4790 ca        1 M72     -0.154000
     11 CE1         5.4590   -1.1130   -4.4470 ca        1 M72     -0.145500
     12 CD1         5.0280   -1.1040   -3.1200 ca        1 M72     -0.115000
     13 O1          4.3000   -1.2790   -0.5170 os        1 M72     -0.444600
     14 C1          4.0140   -1.7990    0.7730 c3        1 M72      0.101700
     15 H2          2.5630    0.3480   -0.2210 h1        1 M72      0.061700
     16 H3          1.1000    0.3320   -2.5600 ho        1 M72      0.420000
     17 H4          2.6860   -2.3870   -1.2510 h1        1 M72      0.060700
     18 H5          1.7050   -1.7030   -3.6140 ha        1 M72      0.150500
     19 H6          2.4850   -1.7340   -5.9930 ha        1 M72      0.113000
     20 H7          4.8930   -1.3500   -6.5220 ha        1 M72      0.108000
     21 H8          6.5190   -0.9330   -4.6760 ha        1 M72      0.113000
     22 H9          5.7420   -0.9170   -2.3040 ha        1 M72      0.150500
     23 H10         2.9630   -1.5680    1.0910 h1        1 M72      0.038367
     24 H11         4.7570   -1.3100    1.4500 h1        1 M72      0.038367
     25 H12         4.1740   -2.9070    0.7640 h1        1 M72      0.038367
@<TRIPOS>BOND
     1    1    2 1   
     2    2    3 1   
     3    2    4 1   
     4    4    5 1   
     5    4    6 1   
     6    4   15 1   
     7    5   16 1   
     8    6    7 1   
     9    6   13 1   
    10    6   17 1   
    11    7    8 ar  
    12    7   12 ar  
    13    8    9 ar  
    14    8   18 1   
    15    9   10 ar  
    16    9   19 1   
    17   10   11 ar  
    18   10   20 1   
    19   11   12 ar  
    20   11   21 1   
    21   12   22 1   
    22   13   14 1   
    23   14   23 1   
    24   14   24 1   
    25   14   25 1   
@<TRIPOS>SUBSTRUCTURE
     1 M72         1 TEMP              0 ****  ****    0 ROOT
