@<TRIPOS>MOLECULE
molecule
   25    25     1     0     0
SMALL
bcc


@<TRIPOS>ATOM
      1 O3           0.0000     0.0000     0.0000 o          1 M72      -0.833300
      2 C            1.2080     0.0000     0.0000 c          1 M72       0.867600
      3 O            1.8790     0.0000     1.1630 o          1 M72      -0.833300
      4 CA           1.9620    -0.0060    -1.3050 c3         1 M72       0.043100
      5 OA           1.0380     0.1070    -2.3890 oh         1 M72      -0.616800
      6 CB           2.7440    -1.3140    -1.4350 c3         1 M72       0.207400
      7 CG           3.4980    -1.3190    -2.7400 ca         1 M72      -0.088300
      8 CD2          2.9460    -1.9240    -3.8550 ca         1 M72      -0.108500
      9 CE2          3.6370    -1.9290    -5.0520 ca         1 M72      -0.146000
     10 CZ           4.8810    -1.3300    -5.1350 ca         1 M72      -0.150000
     11 CE1          5.4330    -0.7270    -4.0200 ca         1 M72      -0.146000
     12 CD1          4.7390    -0.7170    -2.8250 ca         1 M72      -0.108500
     13 O1           3.6690    -1.4260    -0.3520 os         1 M72      -0.375600
     14 C1           3.9460    -2.7730     0.0390 c3         1 M72       0.136700
     15 H2           2.6500     0.8310    -1.3280 h1         1 M72       0.030700
     16 H3           0.7820     1.0090    -2.4910 ho         1 M72       0.397000
     17 H4           2.0560    -2.1500    -1.4120 h1         1 M72       0.053700
     18 H5           1.9710    -2.3930    -3.7900 ha         1 M72       0.142000
     19 H6           3.2050    -2.4020    -5.9250 ha         1 M72       0.112500
     20 H7           5.4230    -1.3360    -6.0730 ha         1 M72       0.108000
     21 H8           6.4060    -0.2560    -4.0850 ha         1 M72       0.112500
     22 H9           5.1720    -0.2440    -1.9520 ha         1 M72       0.142000
     23 H10          3.1520    -3.4210    -0.3120 h1         1 M72       0.018033
     24 H11          4.8880    -3.0880    -0.3940 h1         1 M72       0.018033
     25 H12          4.0080    -2.8300     1.1190 h1         1 M72       0.018033
@<TRIPOS>BOND
     1     5     4 1
     2     4     6 1
     3     4     2 1
     4    14    13 1
     5     6    13 1
     6     6     7 1
     7    12     7 ar
     8    12    11 ar
     9     7     8 ar
    10    11    10 ar
    11     2     1 1
    12     2     3 1
    13     8     9 ar
    14    10     9 ar
    15     4    15 1
    16     5    16 1
    17     6    17 1
    18     8    18 1
    19     9    19 1
    20    10    20 1
    21    11    21 1
    22    12    22 1
    23    14    23 1
    24    14    24 1
    25    14    25 1
@<TRIPOS>SUBSTRUCTURE
     1 M72         1 TEMP              0 ****  ****    0 ROOT
