@<TRIPOS>MOLECULE
molecule
   79    80     1     0     0
SMALL
bcc


@<TRIPOS>ATOM
      1 O22          0.0000     0.0000     0.0000 o          1 M73      -0.593000
      2 C21          1.2160     0.0000     0.0000 c          1 M73       0.749100
      3 O23          1.8890     0.0000     1.1660 os         1 M73      -0.451900
      4 C22          1.0990     0.0010     2.3830 c3         1 M73       0.180400
      5 C23          2.0310     0.0020     3.5960 c3         1 M73      -0.121700
      6 C24          2.8240    -1.3060     3.6300 c3         1 M73      -0.087100
      7 C25          1.2150     0.1270     4.8580 c          1 M73       0.636100
      8 O26          0.0110     0.2080     4.7930 o          1 M73      -0.545000
      9 O27          1.8260     0.1490     6.0530 os         1 M73      -0.426900
     10 C28          0.9770     0.2720     7.2240 c3         1 M73       0.138700
     11 N20          1.8890    -0.0060    -1.1670 ns         1 M73      -0.569900
     12 C19          1.1550    -0.0140    -2.4360 c3         1 M73       0.125700
     13 C32          0.7930     1.4220    -2.8220 c3         1 M73      -0.047100
     14 C38         -0.1690     1.9870    -1.8090 ca         1 M73      -0.070300
     15 C37          0.3100     2.6530    -0.6980 ca         1 M73      -0.118000
     16 C36         -0.5720     3.1710     0.2320 ca         1 M73      -0.120500
     17 C35         -1.9340     3.0220     0.0510 ca         1 M73      -0.124000
     18 C34         -2.4140     2.3560    -1.0620 ca         1 M73      -0.120500
     19 C33         -1.5320     1.8430    -1.9940 ca         1 M73      -0.118000
     20 C17          2.0330    -0.6300    -3.5280 c3         1 M73       0.107100
     21 O18          3.1700     0.2050    -3.7530 oh         1 M73      -0.572800
     22 C16          1.2240    -0.7510    -4.8220 c3         1 M73       0.237800
     23 N11          2.0230    -1.4490    -5.8320 n3         1 M73      -0.813500
     24 C12          2.0400    -2.9130    -5.8710 c3         1 M73       0.228800
     25 C13          0.6550    -3.4280    -6.2690 c3         1 M73      -0.096700
     26 C14          0.3360    -2.9790    -7.6970 c3         1 M73      -0.097100
     27 C15          0.6410    -4.9570    -6.2010 c3         1 M73      -0.079400
     28 C18         -0.7750    -5.4660    -6.4770 c3         1 M73      -0.091100
     29 S8           2.9080    -0.5830    -6.9320 sy         1 M73       1.422200
     30 O9           3.2620     0.6360    -6.2910 o          1 M73      -0.627800
     31 O10          3.8660    -1.4810    -7.4740 o          1 M73      -0.627800
     32 C5           1.8240    -0.1540    -8.2530 ca         1 M73      -0.357500
     33 C4           1.0140     0.9620    -8.1480 ca         1 M73       0.008000
     34 C3           0.1640     1.3000    -9.1820 ca         1 M73      -0.215000
     35 C6           1.7880    -0.9320    -9.3960 ca         1 M73       0.008000
     36 C7           0.9400    -0.5980   -10.4340 ca         1 M73      -0.215000
     37 C2           0.1220     0.5180   -10.3270 ca         1 M73       0.193100
     38 O1          -0.7140     0.8480   -11.3460 os         1 M73      -0.323900
     39 C1          -0.7050    -0.0020   -12.4950 c3         1 M73       0.126700
     40 H1           0.4730    -0.8830     2.4090 h1         1 M73       0.069200
     41 H2           0.4750     0.8860     2.4080 h1         1 M73       0.069200
     42 H3           2.7160     0.8380     3.5250 hc         1 M73       0.087700
     43 H4           3.4500    -1.3720     2.7480 hc         1 M73       0.049033
     44 H5           3.4460    -1.3280     4.5170 hc         1 M73       0.049033
     45 H6           2.1380    -2.1440     3.6500 hc         1 M73       0.049033
     46 H7           1.5910     0.2670     8.1170 h1         1 M73       0.050700
     47 H8           0.4220     1.2010     7.1720 h1         1 M73       0.050700
     48 H9           0.2850    -0.5610     7.2570 h1         1 M73       0.050700
     49 H10          2.8890    -0.0380    -1.1680 hn         1 M73       0.320500
     50 H11          0.2500    -0.5980    -2.3270 h1         1 M73       0.084700
     51 H12          1.6910     2.0270    -2.8440 hc         1 M73       0.063200
     52 H13          0.3300     1.4260    -3.8010 hc         1 M73       0.063200
     53 H14          1.3780     2.7700    -0.5550 ha         1 M73       0.122000
     54 H15         -0.1950     3.6930     1.1040 ha         1 M73       0.123500
     55 H16         -2.6250     3.4270     0.7800 ha         1 M73       0.125000
     56 H17         -3.4810     2.2420    -1.2060 ha         1 M73       0.123500
     57 H18         -1.9080     1.3210    -2.8660 ha         1 M73       0.122000
     58 H19          2.3620    -1.6130    -3.2150 h1         1 M73       0.043700
     59 H20          3.9430    -0.2200    -3.4190 ho         1 M73       0.399000
     60 H21          0.9700     0.2380    -5.1830 h1         1 M73       0.065200
     61 H22          0.3170    -1.3100    -4.6300 h1         1 M73       0.065200
     62 H23          2.7720    -3.2470    -6.5960 h1         1 M73       0.063700
     63 H24          2.3000    -3.2970    -4.8920 h1         1 M73       0.063700
     64 H25         -0.0880    -3.0290    -5.5900 hc         1 M73       0.053700
     65 H26         -0.4470    -3.6070    -8.1060 hc         1 M73       0.039033
     66 H27          0.0040    -1.9480    -7.6850 hc         1 M73       0.039033
     67 H28          1.2250    -3.0650    -8.3100 hc         1 M73       0.039033
     68 H29          1.3200    -5.3580    -6.9430 hc         1 M73       0.043200
     69 H30          0.9540    -5.2770    -5.2140 hc         1 M73       0.043200
     70 H31         -0.9490    -6.3740    -5.9120 hc         1 M73       0.035367
     71 H32         -1.4940    -4.7120    -6.1800 hc         1 M73       0.035367
     72 H33         -0.8840    -5.6730    -7.5350 hc         1 M73       0.035367
     73 H34          1.0480     1.5720    -7.2530 ha         1 M73       0.152000
     74 H35         -0.4720     2.1720    -9.0970 ha         1 M73       0.146000
     75 H36          2.4270    -1.8030    -9.4780 ha         1 M73       0.152000
     76 H37          0.9100    -1.2090   -11.3280 ha         1 M73       0.146000
     77 H38         -1.3970     0.3820   -13.2340 h1         1 M73       0.045700
     78 H39         -1.0040    -1.0020   -12.2060 h1         1 M73       0.045700
     79 H40          0.2930    -0.0300   -12.9150 h1         1 M73       0.045700
@<TRIPOS>BOND
     1    17    16 ar
     2    17    18 ar
     3     5     6 1
     4     5     4 1
     5     5     7 1
     6     4     3 1
     7    16    15 ar
     8    18    19 ar
     9     9     7 1
    10     9    10 1
    11     7     8 2
    12     1     2 2
    13    15    14 ar
    14     3     2 1
    15    19    14 ar
    16     2    11 1
    17    14    13 1
    18    30    29 2
    19    11    12 1
    20    13    12 1
    21    12    20 1
    22    31    29 2
    23    26    25 1
    24    29    23 1
    25    29    32 1
    26    23    24 1
    27    23    22 1
    28    20    22 1
    29    20    21 1
    30    32    33 ar
    31    32    35 ar
    32    33    34 ar
    33    25    24 1
    34    25    27 1
    35    28    27 1
    36    35    36 ar
    37    34    37 ar
    38    36    37 ar
    39    37    38 1
    40    38    39 1
    41     4    40 1
    42     4    41 1
    43     5    42 1
    44     6    43 1
    45     6    44 1
    46     6    45 1
    47    10    46 1
    48    10    47 1
    49    10    48 1
    50    11    49 1
    51    12    50 1
    52    13    51 1
    53    13    52 1
    54    15    53 1
    55    16    54 1
    56    17    55 1
    57    18    56 1
    58    19    57 1
    59    20    58 1
    60    21    59 1
    61    22    60 1
    62    22    61 1
    63    24    62 1
    64    24    63 1
    65    25    64 1
    66    26    65 1
    67    26    66 1
    68    26    67 1
    69    27    68 1
    70    27    69 1
    71    28    70 1
    72    28    71 1
    73    28    72 1
    74    33    73 1
    75    34    74 1
    76    35    75 1
    77    36    76 1
    78    39    77 1
    79    39    78 1
    80    39    79 1
@<TRIPOS>SUBSTRUCTURE
     1 M73         1 TEMP              0 ****  ****    0 ROOT
