@<TRIPOS>MOLECULE
M73
   79    80     1     0     0
SMALL
bcc


@<TRIPOS>ATOM
      1 O22          0.0000     0.0000     0.0000 o          1 M73      -0.642000
      2 C21          1.2160     0.0000     0.0000 c          1 M73       0.678100
      3 O23          1.8890     0.0000     1.1660 os         1 M73      -0.433900
      4 C22          1.0990     0.0010     2.3830 c3         1 M73       0.248400
      5 C23          2.0310     0.0020     3.5960 c3         1 M73      -0.108700
      6 C24          2.8240    -1.3060     3.6300 c3         1 M73       0.009900
      7 C25          1.2150     0.1270     4.8580 c          1 M73       0.699100
      8 O26          0.0110     0.2080     4.7930 o          1 M73      -0.580000
      9 O27          1.8260     0.1490     6.0530 os         1 M73      -0.414900
     10 C28          0.9770     0.2720     7.2240 c3         1 M73       0.269700
     11 N20          1.8890    -0.0060    -1.1670 ns         1 M73      -0.167900
     12 C19          1.1550    -0.0140    -2.4360 c3         1 M73       0.012700
     13 C32          0.7930     1.4220    -2.8220 c3         1 M73       0.011900
     14 C38         -0.1690     1.9870    -1.8090 ca         1 M73      -0.077300
     15 C37          0.3100     2.6530    -0.6980 ca         1 M73      -0.094000
     16 C36         -0.5720     3.1710     0.2320 ca         1 M73      -0.091500
     17 C35         -1.9340     3.0220     0.0510 ca         1 M73      -0.097000
     18 C34         -2.4140     2.3560    -1.0620 ca         1 M73      -0.091500
     19 C33         -1.5320     1.8430    -1.9940 ca         1 M73      -0.094000
     20 C17          2.0330    -0.6300    -3.5280 c3         1 M73       0.146100
     21 O18          3.1700     0.2050    -3.7530 oh         1 M73      -0.546800
     22 C16          1.2240    -0.7510    -4.8220 c3         1 M73       0.221800
     23 N11          2.0230    -1.4490    -5.8320 n3         1 M73      -0.524500
     24 C12          2.0400    -2.9130    -5.8710 c3         1 M73       0.220800
     25 C13          0.6550    -3.4280    -6.2690 c3         1 M73      -0.080700
     26 C14          0.3360    -2.9790    -7.6970 c3         1 M73      -0.029100
     27 C15          0.6410    -4.9570    -6.2010 c3         1 M73      -0.020400
     28 C18         -0.7750    -5.4660    -6.4770 c3         1 M73       0.001900
     29 S8           2.9080    -0.5830    -6.9320 sy         1 M73       1.047200
     30 O9           3.2620     0.6360    -6.2910 o          1 M73      -0.579300
     31 O10          3.8660    -1.4810    -7.4740 o          1 M73      -0.579300
     32 C5           1.8240    -0.1540    -8.2530 ca         1 M73      -0.205500
     33 C4           1.0140     0.9620    -8.1480 ca         1 M73       0.045500
     34 C3           0.1640     1.3000    -9.1820 ca         1 M73      -0.210000
     35 C6           1.7880    -0.9320    -9.3960 ca         1 M73       0.045500
     36 C7           0.9400    -0.5980   -10.4340 ca         1 M73      -0.210000
     37 C2           0.1220     0.5180   -10.3270 ca         1 M73       0.202100
     38 O1          -0.7140     0.8480   -11.3460 os         1 M73      -0.304900
     39 C1          -0.7050    -0.0020   -12.4950 c3         1 M73       0.245700
     40 H1           0.4730    -0.8830     2.4090 h1         1 M73       0.029200
     41 H2           0.4750     0.8860     2.4080 h1         1 M73       0.029200
     42 H3           2.7160     0.8380     3.5250 hc         1 M73       0.051700
     43 H4           3.4500    -1.3720     2.7480 hc         1 M73       0.013033
     44 H5           3.4460    -1.3280     4.5170 hc         1 M73       0.013033
     45 H6           2.1380    -2.1440     3.6500 hc         1 M73       0.013033
     46 H7           1.5910     0.2670     8.1170 h1         1 M73       0.001700
     47 H8           0.4220     1.2010     7.1720 h1         1 M73       0.001700
     48 H9           0.2850    -0.5610     7.2570 h1         1 M73       0.001700
     49 H10          2.8890    -0.0380    -1.1680 hn         1 M73       0.172500
     50 H11          0.2500    -0.5980    -2.3270 h1         1 M73       0.061700
     51 H12          1.6910     2.0270    -2.8440 hc         1 M73       0.035700
     52 H13          0.3300     1.4260    -3.8010 hc         1 M73       0.035700
     53 H14          1.3780     2.7700    -0.5550 ha         1 M73       0.098000
     54 H15         -0.1950     3.6930     1.1040 ha         1 M73       0.096500
     55 H16         -2.6250     3.4270     0.7800 ha         1 M73       0.098000
     56 H17         -3.4810     2.2420    -1.2060 ha         1 M73       0.096500
     57 H18         -1.9080     1.3210    -2.8660 ha         1 M73       0.098000
     58 H19          2.3620    -1.6130    -3.2150 h1         1 M73       0.007700
     59 H20          3.9430    -0.2200    -3.4190 ho         1 M73       0.383000
     60 H21          0.9700     0.2380    -5.1830 h1         1 M73       0.033200
     61 H22          0.3170    -1.3100    -4.6300 h1         1 M73       0.033200
     62 H23          2.7720    -3.2470    -6.5960 h1         1 M73       0.032200
     63 H24          2.3000    -3.2970    -4.8920 h1         1 M73       0.032200
     64 H25         -0.0880    -3.0290    -5.5900 hc         1 M73       0.032700
     65 H26         -0.4470    -3.6070    -8.1060 hc         1 M73       0.013367
     66 H27          0.0040    -1.9480    -7.6850 hc         1 M73       0.013367
     67 H28          1.2250    -3.0650    -8.3100 hc         1 M73       0.013367
     68 H29          1.3200    -5.3580    -6.9430 hc         1 M73       0.014700
     69 H30          0.9540    -5.2770    -5.2140 hc         1 M73       0.014700
     70 H31         -0.9490    -6.3740    -5.9120 hc         1 M73       0.003033
     71 H32         -1.4940    -4.7120    -6.1800 hc         1 M73       0.003033
     72 H33         -0.8840    -5.6730    -7.5350 hc         1 M73       0.003033
     73 H34          1.0480     1.5720    -7.2530 ha         1 M73       0.123000
     74 H35         -0.4720     2.1720    -9.0970 ha         1 M73       0.125000
     75 H36          2.4270    -1.8030    -9.4780 ha         1 M73       0.123000
     76 H37          0.9100    -1.2090   -11.3280 ha         1 M73       0.125000
     77 H38         -1.3970     0.3820   -13.2340 h1         1 M73       0.000033
     78 H39         -1.0040    -1.0020   -12.2060 h1         1 M73       0.000033
     79 H40          0.2930    -0.0300   -12.9150 h1         1 M73       0.000033
@<TRIPOS>BOND
     1     1     2 2   
     2     2     3 1   
     3     2    11 1   
     4     3     4 1   
     5     4     5 1   
     6     4    40 1   
     7     4    41 1   
     8     5     6 1   
     9     5     7 1   
    10     5    42 1   
    11     6    43 1   
    12     6    44 1   
    13     6    45 1   
    14     7     8 2   
    15     7     9 1   
    16     9    10 1   
    17    10    46 1   
    18    10    47 1   
    19    10    48 1   
    20    11    12 1   
    21    11    49 1   
    22    12    13 1   
    23    12    20 1   
    24    12    50 1   
    25    13    14 1   
    26    13    51 1   
    27    13    52 1   
    28    14    15 ar  
    29    14    19 ar  
    30    15    16 ar  
    31    15    53 1   
    32    16    17 ar  
    33    16    54 1   
    34    17    18 ar  
    35    17    55 1   
    36    18    19 ar  
    37    18    56 1   
    38    19    57 1   
    39    20    21 1   
    40    20    22 1   
    41    20    58 1   
    42    21    59 1   
    43    22    23 1   
    44    22    60 1   
    45    22    61 1   
    46    23    24 1   
    47    23    29 1   
    48    24    25 1   
    49    24    62 1   
    50    24    63 1   
    51    25    26 1   
    52    25    27 1   
    53    25    64 1   
    54    26    65 1   
    55    26    66 1   
    56    26    67 1   
    57    27    28 1   
    58    27    68 1   
    59    27    69 1   
    60    28    70 1   
    61    28    71 1   
    62    28    72 1   
    63    29    30 2   
    64    29    31 2   
    65    29    32 1   
    66    32    33 ar  
    67    32    35 ar  
    68    33    34 ar  
    69    33    73 1   
    70    34    37 ar  
    71    34    74 1   
    72    35    36 ar  
    73    35    75 1   
    74    36    37 ar  
    75    36    76 1   
    76    37    38 1   
    77    38    39 1   
    78    39    77 1   
    79    39    78 1   
    80    39    79 1   
@<TRIPOS>SUBSTRUCTURE
     1 M73         1 TEMP              0 ****  ****    0 ROOT
