@<TRIPOS>MOLECULE
molecule
   22    22     1     0     0
SMALL
bcc


@<TRIPOS>ATOM
      1 O3           0.0000     0.0000     0.0000 o          1 M74      -0.838800
      2 C            1.3430     0.0000     0.0000 c          1 M74       0.875600
      3 O            1.9470     0.0000     1.0470 o          1 M74      -0.838800
      4 CA           2.0960    -0.0010    -1.3050 c3         1 M74       0.045100
      5 CB           1.8240    -1.3080    -2.0510 c3         1 M74       0.213400
      6 O1           2.1450    -2.4150    -1.2070 oh         1 M74      -0.576800
      7 CG           2.6710    -1.3630    -3.2960 ca         1 M74      -0.089300
      8 CD2          3.9690    -1.8330    -3.2280 ca         1 M74      -0.105500
      9 CE2          4.7460    -1.8830    -4.3710 ca         1 M74      -0.148000
     10 CZ           4.2260    -1.4630    -5.5800 ca         1 M74      -0.149000
     11 CE1          2.9260    -0.9930    -5.6480 ca         1 M74      -0.148000
     12 CD1          2.1480    -0.9470    -4.5070 ca         1 M74      -0.105500
     13 O2           3.4960     0.1160    -1.0460 oh         1 M74      -0.601800
     14 H2           1.7700     0.8350    -1.9110 h1         1 M74       0.021700
     15 H3           0.7760    -1.3560    -2.3250 h1         1 M74       0.055700
     16 H4           1.4900    -3.0850    -1.3040 ho         1 M74       0.385000
     17 H5           4.3770    -2.1630    -2.2800 ha         1 M74       0.144000
     18 H6           5.7630    -2.2510    -4.3180 ha         1 M74       0.112500
     19 H7           4.8350    -1.5010    -6.4750 ha         1 M74       0.108000
     20 H8           2.5170    -0.6660    -6.5960 ha         1 M74       0.112500
     21 H9           1.1300    -0.5790    -4.5590 ha         1 M74       0.144000
     22 H10          3.7120     1.0200    -0.8890 ho         1 M74       0.387000
@<TRIPOS>BOND
     1    13     4 1
     2     4     5 1
     3     4     2 1
     4     5     6 1
     5     5     7 1
     6     8     7 ar
     7     8     9 ar
     8     7    12 ar
     9     9    10 ar
    10     2     3 1
    11     2     1 1
    12    12    11 ar
    13    10    11 ar
    14     4    14 1
    15     5    15 1
    16     6    16 1
    17     8    17 1
    18     9    18 1
    19    10    19 1
    20    11    20 1
    21    12    21 1
    22    13    22 1
@<TRIPOS>SUBSTRUCTURE
     1 M74         1 TEMP              0 ****  ****    0 ROOT
