@<TRIPOS>MOLECULE
M74
   22    22     1     0     0
SMALL
bcc


@<TRIPOS>ATOM
      1 O3         -0.2790    0.3630   -0.5080 o         1 M74     -0.830300
      2 C           0.9090    0.0280   -0.2790 c         1 M74      0.890600
      3 O           1.3690   -0.3680    0.8350 o         1 M74     -0.830300
      4 CA          1.9410    0.0590   -1.4410 c3        1 M74     -0.015900
      5 CB          2.0880   -1.3810   -1.9770 c3        1 M74      0.166400
      6 O1          2.7510   -2.2160   -1.0340 oh        1 M74     -0.637800
      7 CG          2.8270   -1.4350   -3.2810 ca        1 M74     -0.043300
      8 CD2         4.1150   -1.9720   -3.3790 ca        1 M74     -0.118000
      9 CE2         4.7680   -2.0140   -4.6100 ca        1 M74     -0.143500
     10 CZ          4.1420   -1.5210   -5.7540 ca        1 M74     -0.155000
     11 CE1         2.8590   -0.9820   -5.6630 ca        1 M74     -0.143500
     12 CD1         2.2030   -0.9390   -4.4340 ca        1 M74     -0.118000
     13 O2          3.1870    0.5480   -0.9840 oh        1 M74     -0.617800
     14 H2          1.6190    0.7470   -2.2630 h1        1 M74      0.064700
     15 H3          1.0480   -1.7960   -2.1380 h1        1 M74      0.048700
     16 H4          2.4800   -1.9030   -0.1530 ho        1 M74      0.445000
     17 H5          4.6030   -2.3550   -2.4690 ha        1 M74      0.143500
     18 H6          5.7800   -2.4360   -4.6770 ha        1 M74      0.113000
     19 H7          4.6580   -1.5540   -6.7230 ha        1 M74      0.109000
     20 H8          2.3640   -0.5880   -6.5610 ha        1 M74      0.113000
     21 H9          1.1920   -0.5090   -4.3600 ha        1 M74      0.143500
     22 H10         3.2700    0.2620   -0.0600 ho        1 M74      0.416000
@<TRIPOS>BOND
     1    1    2 1   
     2    2    3 1   
     3    2    4 1   
     4    4    5 1   
     5    4   13 1   
     6    4   14 1   
     7    5    6 1   
     8    5    7 1   
     9    5   15 1   
    10    6   16 1   
    11    7    8 ar  
    12    7   12 ar  
    13    8    9 ar  
    14    8   17 1   
    15    9   10 ar  
    16    9   18 1   
    17   10   11 ar  
    18   10   19 1   
    19   11   12 ar  
    20   11   20 1   
    21   12   21 1   
    22   13   22 1   
@<TRIPOS>SUBSTRUCTURE
     1 M74         1 TEMP              0 ****  ****    0 ROOT
