@<TRIPOS>MOLECULE
molecule
   37    39     1     0     0
SMALL
bcc


@<TRIPOS>ATOM
      1 O1           0.0000     0.0000     0.0000 o          1 M76      -0.599100
      2 C2           1.2180     0.0000     0.0000 c          1 M76       0.696300
      3 N3           1.8910     0.0000     1.1670 ns         1 M76      -0.573900
      4 C4           1.1620     0.1100     2.4340 c3         1 M76       0.162300
      5 C5           2.1410     0.0850     3.5800 ca         1 M76      -0.135300
      6 C6           2.5030    -1.1200     4.1530 ca         1 M76      -0.086000
      7 C7           3.4000    -1.1440     5.2040 ca         1 M76      -0.170000
      8 C8           3.9360     0.0390     5.6820 ca         1 M76       0.142900
      9 C10          3.5730     1.2450     5.1080 ca         1 M76      -0.170000
     10 C11          2.6800     1.2670     4.0540 ca         1 M76      -0.086000
     11 C12          1.9500    -0.0050    -1.2680 cc         1 M76      -0.229400
     12 C13          2.5010    -1.1780    -1.7580 cd         1 M76       0.259700
     13 O14          2.3540    -2.3180    -1.0520 oh         1 M76      -0.500100
     14 N15          3.1850    -1.2120    -2.9330 n          1 M76      -0.245500
     15 O16          3.7210    -2.4450    -3.3730 oh         1 M76      -0.361100
     16 C17          3.3730    -0.1150    -3.6910 c          1 M76       0.715100
     17 O18          3.9930    -0.1970    -4.7350 o          1 M76      -0.604500
     18 C19          2.8270     1.1760    -3.2600 ca         1 M76      -0.162600
     19 C20          2.9990     2.3360    -4.0170 ca         1 M76      -0.052000
     20 C21          2.4680     3.5250    -3.5690 ca         1 M76      -0.149000
     21 C22          1.7660     3.5820    -2.3720 ca         1 M76      -0.088000
     22 C23          1.5850     2.4490    -1.6080 ca         1 M76      -0.131000
     23 C24          2.1080     1.2350    -2.0460 ca         1 M76       0.027200
     24 F9           4.8130     0.0170     6.7100 f          1 M76      -0.137900
     25 H1           2.8890    -0.0680     1.1690 hn         1 M76       0.323500
     26 H2           0.4740    -0.7220     2.5280 h1         1 M76       0.060700
     27 H3           0.6080     1.0410     2.4520 h1         1 M76       0.060700
     28 H4           2.0830    -2.0460     3.7790 ha         1 M76       0.142500
     29 H5           3.6840    -2.0880     5.6530 ha         1 M76       0.148500
     30 H6           3.9940     2.1710     5.4810 ha         1 M76       0.148500
     31 H7           2.3960     2.2100     3.6040 ha         1 M76       0.142500
     32 H9           4.6420    -2.4780    -3.1710 ho         1 M76       0.420000
     33 H10          3.5460     2.3010    -4.9520 ha         1 M76       0.158000
     34 H11          2.6010     4.4260    -4.1560 ha         1 M76       0.139000
     35 H12          1.3550     4.5270    -2.0360 ha         1 M76       0.137000
     36 H13          1.0360     2.5020    -0.6760 ha         1 M76       0.149000
     37 H8           1.7330    -2.8800    -1.4860 ho         1 M76       0.452000
@<TRIPOS>BOND
     1    21    22 ar
     2    21    20 ar
     3     1     2 2
     4     6     7 ar
     5     6     5 ar
     6    22    23 ar
     7     7     8 ar
     8    20    19 ar
     9     4     5 1
    10     4     3 1
    11     2     3 1
    12     2    11 1
    13     5    10 ar
    14     8    24 1
    15     8     9 ar
    16    23    11 1
    17    23    18 ar
    18    19    18 ar
    19    11    12 2
    20    18    16 1
    21    10     9 ar
    22    12    13 1
    23    12    14 1
    24    16    14 1
    25    16    17 2
    26    14    15 1
    27     3    25 1
    28     4    26 1
    29     4    27 1
    30     6    28 1
    31     7    29 1
    32     9    30 1
    33    10    31 1
    34    15    32 1
    35    19    33 1
    36    20    34 1
    37    21    35 1
    38    22    36 1
    39    13    37 1
@<TRIPOS>SUBSTRUCTURE
     1 M76         1 TEMP              0 ****  ****    0 ROOT
