@<TRIPOS>MOLECULE
M76
   37    39     1     0     0
SMALL
bcc


@<TRIPOS>ATOM
      1 O1           0.0000     0.0000     0.0000 o          1 M76      -0.645100
      2 C2           1.2180     0.0000     0.0000 c          1 M76       0.621300
      3 N3           1.8910     0.0000     1.1670 ns         1 M76      -0.186900
      4 C4           1.1620     0.1100     2.4340 c3         1 M76       0.113300
      5 C5           2.1410     0.0850     3.5800 ca         1 M76      -0.140300
      6 C6           2.5030    -1.1200     4.1530 ca         1 M76      -0.057000
      7 C7           3.4000    -1.1440     5.2040 ca         1 M76      -0.134000
      8 C8           3.9360     0.0390     5.6820 ca         1 M76       0.113900
      9 C10          3.5730     1.2450     5.1080 ca         1 M76      -0.134000
     10 C11          2.6800     1.2670     4.0540 ca         1 M76      -0.057000
     11 C12          1.9500    -0.0050    -1.2680 cc         1 M76      -0.240400
     12 C13          2.5010    -1.1780    -1.7580 cd         1 M76       0.111700
     13 O14          2.3540    -2.3180    -1.0520 oh         1 M76      -0.486100
     14 N15          3.1850    -1.2120    -2.9330 n          1 M76       0.176500
     15 O16          3.7210    -2.4450    -3.3730 oh         1 M76      -0.445100
     16 C17          3.3730    -0.1150    -3.6910 c          1 M76       0.618100
     17 O18          3.9930    -0.1970    -4.7350 o          1 M76      -0.655500
     18 C19          2.8270     1.1760    -3.2600 ca         1 M76      -0.179600
     19 C20          2.9990     2.3360    -4.0170 ca         1 M76      -0.017000
     20 C21          2.4680     3.5250    -3.5690 ca         1 M76      -0.128000
     21 C22          1.7660     3.5820    -2.3720 ca         1 M76      -0.058000
     22 C23          1.5850     2.4490    -1.6080 ca         1 M76      -0.112000
     23 C24          2.1080     1.2350    -2.0460 ca         1 M76       0.036200
     24 F9           4.8130     0.0170     6.7100 f          1 M76      -0.126900
     25 H1           2.8890    -0.0680     1.1690 hn         1 M76       0.180500
     26 H2           0.4740    -0.7220     2.5280 h1         1 M76       0.030200
     27 H3           0.6080     1.0410     2.4520 h1         1 M76       0.030200
     28 H4           2.0830    -2.0460     3.7790 ha         1 M76       0.112000
     29 H5           3.6840    -2.0880     5.6530 ha         1 M76       0.122000
     30 H6           3.9940     2.1710     5.4810 ha         1 M76       0.122000
     31 H7           2.3960     2.2100     3.6040 ha         1 M76       0.112000
     32 H9           4.6420    -2.4780    -3.1710 ho         1 M76       0.415000
     33 H10          3.5460     2.3010    -4.9520 ha         1 M76       0.126000
     34 H11          2.6010     4.4260    -4.1560 ha         1 M76       0.108000
     35 H12          1.3550     4.5270    -2.0360 ha         1 M76       0.103000
     36 H13          1.0360     2.5020    -0.6760 ha         1 M76       0.120000
     37 H8           1.7330    -2.8800    -1.4860 ho         1 M76       0.429000
@<TRIPOS>BOND
     1     1     2 2   
     2     2     3 1   
     3     2    11 1   
     4     3     4 1   
     5     3    25 1   
     6     4     5 1   
     7     4    26 1   
     8     4    27 1   
     9     5     6 ar  
    10     5    10 ar  
    11     6     7 ar  
    12     6    28 1   
    13     7     8 ar  
    14     7    29 1   
    15     8     9 ar  
    16     8    24 1   
    17     9    10 ar  
    18     9    30 1   
    19    10    31 1   
    20    11    12 2   
    21    11    23 1   
    22    12    13 1   
    23    12    14 1   
    24    13    37 1   
    25    14    15 1   
    26    14    16 1   
    27    15    32 1   
    28    16    17 2   
    29    16    18 1   
    30    18    19 ar  
    31    18    23 ar  
    32    19    20 ar  
    33    19    33 1   
    34    20    21 ar  
    35    20    34 1   
    36    21    22 ar  
    37    21    35 1   
    38    22    23 ar  
    39    22    36 1   
@<TRIPOS>SUBSTRUCTURE
     1 M76         1 TEMP              0 ****  ****    0 ROOT
