@<TRIPOS>MOLECULE
molecule
   37    39     1     0     0
SMALL
bcc


@<TRIPOS>ATOM
      1 O1           0.0000     0.0000     0.0000 o          1 M77      -0.632300
      2 S1           1.4210     0.0000     0.0000 sy         1 M77       1.421200
      3 O2           2.1970     0.0000     1.1910 o          1 M77      -0.632300
      4 N4           1.8880    -1.3340    -0.8630 n3         1 M77      -0.817500
      5 C22          3.2820    -1.8770    -0.7340 c3         1 M77       0.247800
      6 C21          3.1740    -3.1760    -0.0600 c3         1 M77       0.129800
      7 N17          2.3230    -4.1440    -0.7490 n7         1 M77      -0.798200
      8 C16          1.0060    -3.9880    -0.1880 c3         1 M77       0.147800
      9 C20          0.1210    -3.1320    -1.1270 c3         1 M77      -0.091400
     10 C15          0.9650    -1.9950    -1.7420 c3         1 M77       0.246800
     11 C5           1.9190     1.4180    -0.9200 ca         1 M77      -0.298500
     12 C6           2.2930     1.2930    -2.2230 ca         1 M77      -0.006000
     13 C7           2.6910     2.4040    -2.9660 ca         1 M77      -0.161000
     14 C8           2.7170     3.6470    -2.4110 ca         1 M77      -0.045000
     15 C9           2.3390     3.8150    -1.0690 ca         1 M77      -0.187300
     16 C10          1.9280     2.6830    -0.3170 ca         1 M77       0.069000
     17 C11          1.5480     2.8790     1.0230 ca         1 M77      -0.254300
     18 C14          2.3450     5.0720    -0.4440 ca         1 M77       0.455200
     19 N13          1.9820     5.1780     0.8130 nb         1 M77      -0.697000
     20 C12          1.5830     4.1410     1.5360 ca         1 M77       0.438200
     21 H221         3.7200    -2.0060    -1.7160 h1         1 M77       0.062200
     22 H222         3.8870    -1.2030    -0.1390 h1         1 M77       0.062200
     23 H211         2.7720    -3.0140     0.9330 h1         1 M77       0.041200
     24 H212         4.1670    -3.5980     0.0290 h1         1 M77       0.041200
     25 H17          2.6560    -5.0700    -0.5660 hn         1 M77       0.355800
     26 H161         0.5530    -4.9640    -0.0630 h1         1 M77       0.034700
     27 H162         1.0840    -3.4980     0.7750 h1         1 M77       0.034700
     28 H201        -0.2720    -3.7570    -1.9200 hc         1 M77       0.055700
     29 H202        -0.6970    -2.7050    -0.5590 hc         1 M77       0.055700
     30 H151         0.2840    -1.2490    -2.1330 h1         1 M77       0.049700
     31 H152         1.5300    -2.4100    -2.5680 h1         1 M77       0.049700
     32 H6           2.2820     0.3150    -2.6900 ha         1 M77       0.138000
     33 H7           2.9840     2.2760    -4.0010 ha         1 M77       0.137000
     34 H8           3.0290     4.5010    -3.0010 ha         1 M77       0.138000
     35 H11          1.2180     2.0450     1.6310 ha         1 M77       0.156000
     36 H14          2.6640     5.9490    -0.9930 h4         1 M77       0.027100
     37 H12          1.2970     4.2980     2.5690 h4         1 M77       0.028100
@<TRIPOS>BOND
     1     1     2 2
     2     2     3 2
     3     2     4 1
     4     2    11 1
     5     4     5 1
     6     4    10 1
     7     5     6 1
     8     5    21 1
     9     5    22 1
    10     6     7 1
    11     6    23 1
    12     6    24 1
    13     7     8 1
    14     7    25 1
    15     8     9 1
    16     8    26 1
    17     8    27 1
    18     9    10 1
    19     9    28 1
    20     9    29 1
    21    10    30 1
    22    10    31 1
    23    11    12 ar
    24    11    16 ar
    25    12    13 ar
    26    12    32 1
    27    13    14 ar
    28    13    33 1
    29    14    15 ar
    30    14    34 1
    31    15    16 ar
    32    15    18 ar
    33    16    17 ar
    34    17    20 ar
    35    17    35 1
    36    18    19 ar
    37    18    36 1
    38    19    20 ar
    39    20    37 1
@<TRIPOS>SUBSTRUCTURE
     1 M77         1 TEMP              0 ****  ****    0 ROOT
