@<TRIPOS>MOLECULE
molecule
   31    31     1     0     0
SMALL
bcc


@<TRIPOS>ATOM
      1 P            0.0000     0.0000     0.0000 p5         1 M7B       1.182900
      2 C1           5.0820    -4.2910     0.2840 c3         1 M7B       0.341900
      3 C2           6.5860    -4.0620     0.1130 c3         1 M7B       0.109100
      4 O2           6.8700    -3.7570    -1.2540 oh         1 M7B      -0.561800
      5 C3           7.0190    -2.8880     0.9990 c3         1 M7B       0.102100
      6 O3           8.4070    -2.6190     0.7900 oh         1 M7B      -0.603800
      7 C4           6.1950    -1.6520     0.6280 c3         1 M7B       0.117100
      8 O4           6.5400    -0.5710     1.4970 oh         1 M7B      -0.574800
      9 C5           4.7060    -1.9750     0.7790 c3         1 M7B       0.154100
     10 C6           3.8750    -0.7640     0.3540 c3         1 M7B       0.149100
     11 O6           4.2070     0.3550     1.1800 oh         1 M7B      -0.606800
     12 C7           2.3880    -1.0870     0.5060 c3         1 M7B       0.204400
     13 O7           1.6100     0.0000     0.0000 os         1 M7B      -0.581200
     14 O8          -0.5370     0.0000     1.5180 o          1 M7B      -0.910500
     15 O9          -0.5360     1.3150    -0.7590 o          1 M7B      -0.910500
     16 O10         -0.4940    -1.2080    -0.6980 o          1 M7B      -0.910500
     17 O1           4.6600    -5.3480    -0.5810 oh         1 M7B      -0.587800
     18 O5           4.3780    -3.0930    -0.0470 os         1 M7B      -0.390600
     19 H1           4.8750    -4.5570     1.3130 h2         1 M7B       0.015700
     20 H2           7.1230    -4.9550     0.4090 h1         1 M7B       0.020700
     21 H3           7.3980    -4.4440    -1.6260 ho         1 M7B       0.391000
     22 H4           6.8460    -3.1390     2.0390 h1         1 M7B       0.041700
     23 H5           8.8970    -2.8920     1.5480 ho         1 M7B       0.387000
     24 H6           6.4010    -1.3770    -0.3990 h1         1 M7B       0.069700
     25 H7           7.2490    -0.0770     1.1180 ho         1 M7B       0.391000
     26 H8           4.4950    -2.2190     1.8140 h1         1 M7B       0.049700
     27 H9           4.0890    -0.5240    -0.6810 h1         1 M7B       0.039700
     28 H10          4.1160     1.1500     0.6830 ho         1 M7B       0.412000
     29 H11          2.1550    -1.9870    -0.0510 h1         1 M7B       0.025200
     30 H12          2.1570    -1.2400     1.5530 h1         1 M7B       0.025200
     31 H15          3.9510    -5.8210    -0.1770 ho         1 M7B       0.410000
@<TRIPOS>BOND
     1    16     1 1
     2     1    15 1
     3     1    13 1
     4     1    14 1
     5    13    12 1
     6    17     2 1
     7    12    10 1
     8     4     3 1
     9    18     2 1
    10    18     9 1
    11     2     3 1
    12    11    10 1
    13    10     9 1
    14     3     5 1
    15     9     7 1
    16     7     5 1
    17     7     8 1
    18     5     6 1
    19     2    19 1
    20     3    20 1
    21     4    21 1
    22     5    22 1
    23     6    23 1
    24     7    24 1
    25     8    25 1
    26     9    26 1
    27    10    27 1
    28    11    28 1
    29    12    29 1
    30    12    30 1
    31    17    31 1
@<TRIPOS>SUBSTRUCTURE
     1 M7B         1 TEMP              0 ****  ****    0 ROOT
