@<TRIPOS>MOLECULE
M7B
   31    31     1     0     0
SMALL
bcc


@<TRIPOS>ATOM
      1 P           1.5910    0.2550    1.4360 p5        1 M7B      1.339900
      2 C1          5.0330   -4.4430    0.4890 c3        1 M7B      0.306900
      3 C2          6.5020   -4.0910    0.8260 c3        1 M7B      0.088100
      4 O2          7.2900   -4.2060   -0.3470 oh        1 M7B     -0.609800
      5 C3          6.5110   -2.6880    1.4360 c3        1 M7B      0.074100
      6 O3          7.8580   -2.3150    1.6840 oh        1 M7B     -0.623800
      7 C4          5.8080   -1.6610    0.5120 c3        1 M7B      0.130100
      8 O4          5.8530   -0.4280    1.1810 oh        1 M7B     -0.661800
      9 C5          4.3980   -2.1680    0.1690 c3        1 M7B      0.081100
     10 C6          3.6750   -1.3090   -0.8960 c3        1 M7B      0.138100
     11 O6          4.2380   -0.0210   -0.9190 oh        1 M7B     -0.648800
     12 C7          2.1420   -1.2720   -0.6220 c3        1 M7B      0.200400
     13 O7          1.7070   -0.0190   -0.2770 os        1 M7B     -0.566200
     14 O8          3.0890    0.1760    1.6820 o         1 M7B     -0.930500
     15 O9          0.9530    1.6020    1.5540 o         1 M7B     -0.930500
     16 O10         0.8280   -0.9420    1.9230 o         1 M7B     -0.930500
     17 O1          4.9470   -5.6410   -0.2410 oh        1 M7B     -0.605800
     18 O5          4.5010   -3.4860   -0.4080 os        1 M7B     -0.464600
     19 H1          4.4010   -4.5680    1.4070 h2        1 M7B      0.082700
     20 H2          6.9420   -4.8430    1.5320 h1        1 M7B      0.069700
     21 H3          7.0240   -3.4820   -0.9290 ho        1 M7B      0.411000
     22 H4          5.9640   -2.7180    2.4220 h1        1 M7B      0.052700
     23 H5          7.8510   -1.3500    1.7630 ho        1 M7B      0.423000
     24 H6          6.4110   -1.5360   -0.4310 h1        1 M7B      0.035700
     25 H7          4.9360   -0.1430    1.4090 ho        1 M7B      0.519000
     26 H8          3.7880   -2.2070    1.1150 h1        1 M7B      0.111700
     27 H9          3.8830   -1.7510   -1.9100 h1        1 M7B      0.018700
     28 H10         3.7760    0.4890   -0.2100 ho        1 M7B      0.478000
     29 H11         1.6370   -1.5830   -1.5830 h1        1 M7B      0.000200
     30 H12         1.8790   -2.0180    0.1810 h1        1 M7B      0.000200
     31 H15         5.3860   -5.4840   -1.0880 ho        1 M7B      0.411000
@<TRIPOS>BOND
     1    1   13 1   
     2    1   14 1   
     3    1   15 1   
     4    1   16 1   
     5    2    3 1   
     6    2   17 1   
     7    2   18 1   
     8    2   19 1   
     9    3    4 1   
    10    3    5 1   
    11    3   20 1   
    12    4   21 1   
    13    5    6 1   
    14    5    7 1   
    15    5   22 1   
    16    6   23 1   
    17    7    8 1   
    18    7    9 1   
    19    7   24 1   
    20    8   25 1   
    21    9   10 1   
    22    9   18 1   
    23    9   26 1   
    24   10   11 1   
    25   10   12 1   
    26   10   27 1   
    27   11   28 1   
    28   12   13 1   
    29   12   29 1   
    30   12   30 1   
    31   17   31 1   
@<TRIPOS>SUBSTRUCTURE
     1 M7B         1 TEMP              0 ****  ****    0 ROOT
