@<TRIPOS>MOLECULE
molecule
   41    43     1     0     0
SMALL
bcc


@<TRIPOS>ATOM
      1 C15          0.0000     0.0000     0.0000 ca         1 M7C      -0.071500
      2 C14          1.3800     0.0000     0.0000 ca         1 M7C      -0.148500
      3 C13          2.0750     0.0000     1.1960 ca         1 M7C      -0.100000
      4 C12          1.3920     0.0010     2.4000 ca         1 M7C      -0.148500
      5 C11          0.0120     0.0020     2.4130 ca         1 M7C      -0.071500
      6 C10         -0.6940     0.0020     1.2100 ca         1 M7C      -0.131600
      7 C9          -2.1760     0.0020     1.2180 c          1 M7C       0.725100
      8 O8          -2.7900     0.0020     0.1660 o          1 M7C      -0.597100
      9 N2          -2.8390     0.0050     2.3820 ne         1 M7C      -0.744100
     10 C8          -4.1630     0.0060     2.3890 c2         1 M7C       0.576800
     11 S1          -5.1750     0.0050     0.9970 ss         1 M7C      -0.023300
     12 N1          -4.9510     0.0020     3.4970 ns         1 M7C      -0.457400
     13 C7          -6.2710     0.0030     3.3790 c          1 M7C       0.705500
     14 O7          -7.0290    -0.0010     4.3250 o          1 M7C      -0.572500
     15 C1          -6.7300     0.0080     1.9430 c3         1 M7C       0.070900
     16 O5          -7.4840    -1.1620     1.6490 os         1 M7C      -0.351600
     17 C5          -8.7140    -1.2650     2.3710 c3         1 M7C       0.122100
     18 C6          -9.4340    -2.5550     1.9710 c3         1 M7C       0.154400
     19 O6          -8.6570    -3.6810     2.3850 oh         1 M7C      -0.599800
     20 C4          -9.6000    -0.0620     2.0370 c3         1 M7C       0.113100
     21 O4         -10.8130    -0.1390     2.7900 oh         1 M7C      -0.594800
     22 C3          -8.8560     1.2280     2.3960 c3         1 M7C       0.109100
     23 O3          -9.6530     2.3570     2.0320 oh         1 M7C      -0.605800
     24 C2          -7.5300     1.2670     1.6290 c3         1 M7C       0.138100
     25 O2          -6.7820     2.4180     2.0280 oh         1 M7C      -0.597800
     26 H15         -0.5430    -0.0000    -0.9370 ha         1 M7C       0.152000
     27 H14          1.9200    -0.0010    -0.9390 ha         1 M7C       0.133500
     28 H13          3.1580    -0.0000     1.1900 ha         1 M7C       0.130000
     29 H12          1.9420     0.0010     3.3330 ha         1 M7C       0.133500
     30 H11         -0.5220     0.0030     3.3560 ha         1 M7C       0.152000
     31 H1          -4.5330    -0.0020     4.4060 hn         1 M7C       0.355500
     32 H2          -7.7300     1.3100     0.5650 h1         1 M7C       0.072700
     33 H5          -8.5080    -1.2750     3.4340 h1         1 M7C       0.096700
     34 H61C       -10.4050    -2.5900     2.4500 h1         1 M7C       0.038200
     35 H62C        -9.5600    -2.5790     0.8950 h1         1 M7C       0.038200
     36 H4          -9.8260    -0.0650     0.9770 h1         1 M7C       0.051700
     37 H6          -9.1430    -4.4730     2.2270 ho         1 M7C       0.405000
     38 HA         -11.5420     0.0820     2.2350 ho         1 M7C       0.413000
     39 H3          -8.6580     1.2460     3.4610 h1         1 M7C       0.088700
     40 HB          -9.8360     2.8740     2.7990 ho         1 M7C       0.419000
     41 HC          -6.7330     3.0260     1.3090 ho         1 M7C       0.424000
@<TRIPOS>BOND
     1     1     2 ar
     2     1     6 ar
     3     2     3 ar
     4     3     4 ar
     5     4     5 ar
     6     5     6 ar
     7     6     7 1
     8     7     8 2
     9     7     9 1
    10     9    10 2
    11    10    11 1
    12    10    12 1
    13    11    15 1
    14    12    13 1
    15    13    14 2
    16    13    15 1
    17    15    16 1
    18    15    24 1
    19    16    17 1
    20    17    18 1
    21    17    20 1
    22    18    19 1
    23    20    21 1
    24    20    22 1
    25    22    23 1
    26    22    24 1
    27    24    25 1
    28     1    26 1
    29     2    27 1
    30     3    28 1
    31     4    29 1
    32     5    30 1
    33    12    31 1
    34    24    32 1
    35    17    33 1
    36    18    34 1
    37    18    35 1
    38    20    36 1
    39    19    37 1
    40    21    38 1
    41    22    39 1
    42    23    40 1
    43    25    41 1
@<TRIPOS>SUBSTRUCTURE
     1 M7C         1 TEMP              0 ****  ****    0 ROOT
