@<TRIPOS>MOLECULE
M7C
   41    43     1     0     0
SMALL
bcc


@<TRIPOS>ATOM
      1 C15          0.0000     0.0000     0.0000 ca         1 M7C      -0.043000
      2 C14          1.3800     0.0000     0.0000 ca         1 M7C      -0.122500
      3 C13          2.0750     0.0000     1.1960 ca         1 M7C      -0.071000
      4 C12          1.3920     0.0010     2.4000 ca         1 M7C      -0.122500
      5 C11          0.0120     0.0020     2.4130 ca         1 M7C      -0.043000
      6 C10         -0.6940     0.0020     1.2100 ca         1 M7C      -0.152600
      7 C9          -2.1760     0.0020     1.2180 c          1 M7C       0.736100
      8 O8          -2.7900     0.0020     0.1660 o          1 M7C      -0.601100
      9 N2          -2.8390     0.0050     2.3820 ne         1 M7C      -0.636100
     10 C8          -4.1630     0.0060     2.3890 c2         1 M7C       0.424800
     11 S1          -5.1750     0.0050     0.9970 ss         1 M7C      -0.164300
     12 N1          -4.9510     0.0020     3.4970 ns         1 M7C      -0.000400
     13 C7          -6.2710     0.0030     3.3790 c          1 M7C       0.596500
     14 O7          -7.0290    -0.0010     4.3250 o          1 M7C      -0.605500
     15 C1          -6.7300     0.0080     1.9430 c3         1 M7C       0.116900
     16 O5          -7.4840    -1.1620     1.6490 os         1 M7C      -0.332600
     17 C5          -8.7140    -1.2650     2.3710 c3         1 M7C       0.128100
     18 C6          -9.4340    -2.5550     1.9710 c3         1 M7C       0.230400
     19 O6          -8.6570    -3.6810     2.3850 oh         1 M7C      -0.584800
     20 C4          -9.6000    -0.0620     2.0370 c3         1 M7C       0.151100
     21 O4         -10.8130    -0.1390     2.7900 oh         1 M7C      -0.575800
     22 C3          -8.8560     1.2280     2.3960 c3         1 M7C       0.131100
     23 O3          -9.6530     2.3570     2.0320 oh         1 M7C      -0.586800
     24 C2          -7.5300     1.2670     1.6290 c3         1 M7C       0.182100
     25 O2          -6.7820     2.4180     2.0280 oh         1 M7C      -0.584800
     26 H15         -0.5430    -0.0000    -0.9370 ha         1 M7C       0.121000
     27 H14          1.9200    -0.0010    -0.9390 ha         1 M7C       0.105500
     28 H13          3.1580    -0.0000     1.1900 ha         1 M7C       0.101000
     29 H12          1.9420     0.0010     3.3330 ha         1 M7C       0.105500
     30 H11         -0.5220     0.0030     3.3560 ha         1 M7C       0.121000
     31 H1          -4.5330    -0.0020     4.4060 hn         1 M7C       0.190500
     32 H2          -7.7300     1.3100     0.5650 h1         1 M7C       0.038700
     33 H5          -8.5080    -1.2750     3.4340 h1         1 M7C       0.067700
     34 H61C        -9.5600    -2.5800     0.8950 h1         1 M7C      -0.001300
     35 H62C       -10.4050    -2.5900     2.4500 h1         1 M7C      -0.001300
     36 H4          -9.8260    -0.0650     0.9770 h1         1 M7C       0.018700
     37 H6          -9.1370    -4.4740     2.2130 ho         1 M7C       0.391000
     38 HA         -11.5430     0.0720     2.2320 ho         1 M7C       0.398000
     39 H3          -8.6580     1.2460     3.4610 h1         1 M7C       0.057700
     40 HB          -9.8420     2.8700     2.8000 ho         1 M7C       0.404000
     41 HC          -6.7330     3.0260     1.3090 ho         1 M7C       0.411000
@<TRIPOS>BOND
     1     1     2 ar  
     2     1     6 ar  
     3     1    26 1   
     4     2     3 ar  
     5     2    27 1   
     6     3     4 ar  
     7     3    28 1   
     8     4     5 ar  
     9     4    29 1   
    10     5     6 ar  
    11     5    30 1   
    12     6     7 1   
    13     7     8 2   
    14     7     9 1   
    15     9    10 2   
    16    10    11 1   
    17    10    12 1   
    18    11    15 1   
    19    12    13 1   
    20    12    31 1   
    21    13    14 2   
    22    13    15 1   
    23    15    16 1   
    24    15    24 1   
    25    16    17 1   
    26    17    18 1   
    27    17    20 1   
    28    17    33 1   
    29    18    19 1   
    30    18    34 1   
    31    18    35 1   
    32    19    37 1   
    33    20    21 1   
    34    20    22 1   
    35    20    36 1   
    36    21    38 1   
    37    22    23 1   
    38    22    24 1   
    39    22    39 1   
    40    23    40 1   
    41    24    25 1   
    42    24    32 1   
    43    25    41 1   
@<TRIPOS>SUBSTRUCTURE
     1 M7C         1 TEMP              0 ****  ****    0 ROOT
