@<TRIPOS>MOLECULE
molecule
   40    42     1     0     0
SMALL
bcc


@<TRIPOS>ATOM
      1 N01          0.0000     0.0000     0.0000 nb         1 M7K      -0.705000
      2 C02          1.3170     0.0000     0.0000 ca         1 M7K       0.689200
      3 N02          1.9940     0.0020    -1.2110 nv         1 M7K      -1.086500
      4 C03          2.0510     0.0000     1.1950 ca         1 M7K      -0.256300
      5 C04          1.4000    -0.0020     2.3910 ca         1 M7K      -0.079000
      6 C05         -0.0110    -0.0030     2.3850 ca         1 M7K      -0.164300
      7 C06         -0.7440    -0.0030     3.5810 ca         1 M7K      -0.107000
      8 C07         -2.1050    -0.0030     3.5360 ca         1 M7K      -0.125000
      9 C08         -2.7800    -0.0030     2.3180 ca         1 M7K      -0.075300
     10 C09         -2.0990    -0.0020     1.1390 ca         1 M7K      -0.166300
     11 C10         -0.6930    -0.0010     1.1450 ca         1 M7K       0.432600
     12 C11         -4.2870    -0.0040     2.3040 c3         1 M7K      -0.038100
     13 C12         -4.7980     1.4380     2.3000 c3         1 M7K       0.158800
     14 N13         -6.2670     1.4370     2.2870 n7         1 M7K      -0.817200
     15 C14         -6.7950     2.8080     2.2830 c3         1 M7K       0.204100
     16 C21         -8.3010     2.7660     2.2690 ca         1 M7K      -0.060300
     17 C22         -8.9800     2.7430     1.0660 ca         1 M7K      -0.166000
     18 C23        -10.3640     2.7040     1.0530 ca         1 M7K       0.132900
     19 C24        -11.0650     2.6900     2.2470 ca         1 M7K      -0.166000
     20 C25        -10.3840     2.7140     3.4490 ca         1 M7K      -0.105000
     21 C26         -9.0020     2.7470     3.4600 ca         1 M7K      -0.121000
     22 F27        -11.0300     2.6820    -0.1220 f          1 M7K      -0.141900
     23 HN02         2.2260    -0.8630    -1.6560 hn         1 M7K       0.436800
     24 HN0A         2.2240     0.8700    -1.6540 hn         1 M7K       0.436800
     25 H03          3.1340    -0.0000     1.1670 ha         1 M7K       0.142000
     26 H04          1.9520    -0.0020     3.3230 ha         1 M7K       0.138000
     27 H06         -0.2310    -0.0040     4.5350 ha         1 M7K       0.133000
     28 H07         -2.6710    -0.0040     4.4600 ha         1 M7K       0.133000
     29 H09         -2.6390    -0.0020     0.1990 ha         1 M7K       0.149000
     30 H11         -4.6400    -0.5150     1.4160 hc         1 M7K       0.057700
     31 H11A        -4.6560    -0.5150     3.1850 hc         1 M7K       0.057700
     32 H12         -4.4290     1.9490     1.4190 h1         1 M7K       0.037200
     33 H12A        -4.4450     1.9490     3.1880 h1         1 M7K       0.037200
     34 HN13        -6.5930     0.9520     1.4740 hn         1 M7K       0.356800
     35 H14         -6.4400     3.3290     1.4020 h1         1 M7K       0.041200
     36 H14A        -6.4560     3.3280     3.1710 h1         1 M7K       0.041200
     37 H22         -8.4300     2.7540     0.1330 ha         1 M7K       0.142000
     38 H24        -12.1480     2.6620     2.2390 ha         1 M7K       0.144000
     39 H25        -10.9330     2.7010     4.3830 ha         1 M7K       0.137000
     40 H26         -8.4680     2.7650     4.4030 ha         1 M7K       0.140000
@<TRIPOS>BOND
     1     2     1 ar
     2    11     1 ar
     3     4     2 ar
     4     2     3 1
     5     3    23 1
     6     3    24 1
     7     5     4 ar
     8     4    25 1
     9     5     6 ar
    10     5    26 1
    11     7     6 ar
    12     6    11 ar
    13     7     8 ar
    14     7    27 1
    15     8     9 ar
    16     8    28 1
    17     9    10 ar
    18     9    12 1
    19    11    10 ar
    20    10    29 1
    21    13    12 1
    22    12    30 1
    23    12    31 1
    24    13    14 1
    25    13    32 1
    26    13    33 1
    27    14    15 1
    28    14    34 1
    29    15    16 1
    30    15    35 1
    31    15    36 1
    32    17    16 ar
    33    16    21 ar
    34    17    18 ar
    35    17    37 1
    36    22    18 1
    37    18    19 ar
    38    19    20 ar
    39    19    38 1
    40    21    20 ar
    41    20    39 1
    42    21    40 1
@<TRIPOS>SUBSTRUCTURE
     1 M7K         1 TEMP              0 ****  ****    0 ROOT
