@<TRIPOS>MOLECULE
molecule
   51    53     1     0     0
SMALL
bcc


@<TRIPOS>ATOM
      1 OAX          0.0000     0.0000     0.0000 o          1 M7M      -0.926500
      2 OAY          2.1470     1.3150    -0.7590 o          1 M7M      -0.926500
      3 PAZ          1.6100     0.0000     0.0000 p5         1 M7M       1.305900
      4 OBA          2.1030     0.0000     1.3950 o          1 M7M      -0.926500
      5 OBD          2.1470    -1.3140    -0.7590 os         1 M7M      -0.708800
      6 NBE          8.3550    -5.7410    -8.0480 nc         1 M7M      -0.798100
      7 CBF          8.8520    -6.0460    -6.8410 c          1 M7M       0.747700
      8 CBG          7.9750    -6.2220    -5.7460 cd         1 M7M      -0.104200
      9 NBH          8.2340    -6.5400    -4.3940 nh         1 M7M      -0.752400
     10 CBI          6.9290    -6.5900    -3.7210 c3         1 M7M       0.568000
     11 OBJ          3.4430    -3.0940     0.6770 o          1 M7M      -0.859500
     12 PBK          2.2380    -2.8730    -0.3680 p5         1 M7M       1.419800
     13 OBL          0.9640    -3.3010     0.2500 o          1 M7M      -0.859500
     14 CBM          7.0590    -5.6030    -8.2290 cd         1 M7M       0.883100
     15 NBN          6.1810    -5.7630    -7.2050 na         1 M7M      -0.699000
     16 CBO          6.6350    -6.0770    -5.9440 cc         1 M7M       0.291000
     17 NBP          5.9440    -6.2840    -4.7670 nh         1 M7M      -0.722400
     18 CBQ          4.4910    -6.2130    -4.5930 c3         1 M7M       0.446300
     19 OBR          4.1570    -5.3070    -3.5190 os         1 M7M      -0.360600
     20 CBS          2.8220    -5.6760    -3.1110 c3         1 M7M       0.120100
     21 CBT          2.5400    -5.1730    -1.6950 c3         1 M7M       0.239400
     22 OBU          2.5100    -3.7440    -1.6940 os         1 M7M      -0.581200
     23 CBW          7.5170    -5.1150   -10.5930 c3         1 M7M       0.231600
     24 CBX          3.9360    -7.5820    -4.1420 c3         1 M7M       0.070100
     25 CBY          2.8120    -7.2210    -3.1440 c3         1 M7M       0.088100
     26 CBZ          5.1430    -5.1340    -9.6960 c3         1 M7M       0.231600
     27 OCA          3.4040    -8.2990    -5.2570 oh         1 M7M      -0.589800
     28 OCB          1.5520    -7.7040    -3.6140 oh         1 M7M      -0.582800
     29 HBC          9.4190    -6.9900    -2.7300 h1         1 M7M       0.028700
     30 HBCA        10.0240    -7.6170    -4.2700 h1         1 M7M       0.028700
     31 HBCB        10.1610    -5.8920    -3.9020 h1         1 M7M       0.028700
     32 HBI          6.8840    -5.8450    -2.9350 h2         1 M7M       0.039200
     33 HNBN         5.2000    -5.6530    -7.3680 hn         1 M7M       0.443800
     34 HBQ          4.0110    -5.8990    -5.5120 h2         1 M7M       0.064700
     35 HBS          2.0940    -5.2820    -3.8100 h1         1 M7M       0.077700
     36 HBT          3.3190    -5.5180    -1.0270 h1         1 M7M       0.029200
     37 HBTA         1.5820    -5.5530    -1.3600 h1         1 M7M       0.029200
     38 HBW          8.0750    -6.0310   -10.7450 h1         1 M7M       0.038033
     39 HBWA         8.2020    -4.3090   -10.3590 h1         1 M7M       0.038033
     40 HBWB         6.9680    -4.8730   -11.4950 h1         1 M7M       0.038033
     41 HBX          4.7090    -8.1580    -3.6470 h1         1 M7M       0.041700
     42 HBY          3.0360    -7.6210    -2.1630 h1         1 M7M       0.051700
     43 HBZ          4.6400    -6.0670    -9.4710 h1         1 M7M       0.038033
     44 HBZA         4.9620    -4.8650   -10.7290 h1         1 M7M       0.038033
     45 HBZB         4.7630    -4.3540    -9.0480 h1         1 M7M       0.038033
     46 HOCA         3.6870    -9.1970    -5.2180 ho         1 M7M       0.386000
     47 HOCB         1.2180    -8.3480    -3.0120 ho         1 M7M       0.389000
     48 H23          6.7520    -7.5810    -3.3190 h2         1 M7M       0.039200
     49 OBB         10.0600    -6.1710    -6.6880 o          1 M7M      -0.638100
     50 CBC          9.5450    -6.7750    -3.7840 c3         1 M7M       0.286100
     51 NBV          6.5830    -5.2910    -9.4780 nh         1 M7M      -0.801600
@<TRIPOS>BOND
     1     1     3 1
     2     3     2 1
     3     3     5 1
     4     4     3 1
     5    50    29 1
     6    50    30 1
     7    50    31 1
     8     6     7 1
     9     7    49 2
    10     7     8 1
    11     8     9 1
    12     9    50 1
    13    10     9 1
    14    10    32 1
    15    12     5 1
    16    12    11 1
    17    12    13 1
    18    14     6 2
    19    14    15 1
    20    15    16 1
    21    15    33 1
    22    16     8 2
    23    16    17 1
    24    17    10 1
    25    18    17 1
    26    18    19 1
    27    18    34 1
    28    19    20 1
    29    20    21 1
    30    20    35 1
    31    21    22 1
    32    21    36 1
    33    21    37 1
    34    22    12 1
    35    51    14 1
    36    23    51 1
    37    23    38 1
    38    23    39 1
    39    23    40 1
    40    24    18 1
    41    24    25 1
    42    24    41 1
    43    25    20 1
    44    25    42 1
    45    26    51 1
    46    26    43 1
    47    26    44 1
    48    26    45 1
    49    27    24 1
    50    27    46 1
    51    28    25 1
    52    28    47 1
    53    10    48 1
@<TRIPOS>SUBSTRUCTURE
     1 M7M         1 TEMP              0 ****  ****    0 ROOT
