@<TRIPOS>MOLECULE
M7O
   33    34     1     0     0
SMALL
bcc


@<TRIPOS>ATOM
      1 C3           0.0000     0.0000     0.0000 c3         1 M7O       0.128300
      2 C11         -1.4250    -1.3460     3.7950 ca         1 M7O      -0.106000
      3 C13         -1.1940     0.0000     3.5810 ca         1 M7O      -0.108500
      4 C15         -0.7340     0.4360     2.3520 ca         1 M7O      -0.083500
      5 C17          2.1400     0.3900    -1.1000 c          1 M7O       0.561100
      6 C21          4.1840     0.7030    -2.2640 ca         1 M7O      -0.054400
      7 C22          5.3920     0.0520    -2.5600 ca         1 M7O      -0.139600
      8 C23          6.0810     0.3770    -3.7320 ca         1 M7O      -0.051000
      9 C25          5.5720     1.3290    -4.5860 ca         1 M7O      -0.163000
     10 C27          4.3790     1.9700    -4.2910 ca         1 M7O      -0.114000
     11 C29          3.6830     1.6560    -3.1410 ca         1 M7O      -0.145000
     12 N1           1.4650     0.0000     0.0000 ns         1 M7O      -0.234900
     13 C6          -0.5020    -0.4750     1.3380 ca         1 M7O      -0.108300
     14 C7          -0.7330    -1.8210     1.5530 ca         1 M7O      -0.083500
     15 C9          -1.1950    -2.2560     2.7800 ca         1 M7O      -0.108500
     16 O18          1.5320     0.7420    -2.0920 o          1 M7O      -0.738100
     17 N19          3.4870     0.3890    -1.0990 ns         1 M7O      -0.018100
     18 C31          5.9310    -0.9650    -1.6400 c          1 M7O       0.988200
     19 O32          7.1420    -1.5090    -1.8710 o          1 M7O      -0.891800
     20 O33          5.2830    -1.3140    -0.6730 o          1 M7O      -0.891800
     21 H1          -0.3610     1.0040    -0.1860 h1         1 M7O       0.021200
     22 H2          -0.3610    -0.6630    -0.7770 h1         1 M7O       0.021200
     23 H3          -1.7860    -1.6870     4.7570 ha         1 M7O       0.095000
     24 H4          -1.3750     0.7130     4.3760 ha         1 M7O       0.098000
     25 H5          -0.5530     1.4900     2.1850 ha         1 M7O       0.110000
     26 H6           7.0140    -0.1200    -3.9680 ha         1 M7O       0.125000
     27 H7           6.1090     1.5810    -5.4930 ha         1 M7O       0.082000
     28 H8           3.9860     2.7150    -4.9710 ha         1 M7O       0.080000
     29 H9           2.7520     2.1610    -2.9170 ha         1 M7O       0.134000
     30 H10          1.9650    -0.2820     0.8200 hn         1 M7O       0.178500
     31 H11         -0.5540    -2.5340     0.7580 ha         1 M7O       0.110000
     32 H12         -1.3760    -3.3110     2.9480 ha         1 M7O       0.098000
     33 H13          3.9870     0.2170    -0.2490 hn         1 M7O       0.208500
@<TRIPOS>BOND
     1     1    12 1   
     2     1    13 1   
     3     1    21 1   
     4     1    22 1   
     5     2     3 ar  
     6     2    15 ar  
     7     2    23 1   
     8     3     4 ar  
     9     3    24 1   
    10     4    13 ar  
    11     4    25 1   
    12     5    12 1   
    13     5    16 2   
    14     5    17 1   
    15     6     7 ar  
    16     6    11 ar  
    17     6    17 1   
    18     7     8 ar  
    19     7    18 1   
    20     8     9 ar  
    21     8    26 1   
    22     9    10 ar  
    23     9    27 1   
    24    10    11 ar  
    25    10    28 1   
    26    11    29 1   
    27    12    30 1   
    28    13    14 ar  
    29    14    15 ar  
    30    14    31 1   
    31    15    32 1   
    32    17    33 1   
    33    18    19 1   
    34    18    20 1   
@<TRIPOS>SUBSTRUCTURE
     1 M7O         1 TEMP              0 ****  ****    0 ROOT
