@<TRIPOS>MOLECULE
M7P
   31    31     1     0     0
SMALL
bcc


@<TRIPOS>ATOM
      1 O10         2.9600    2.4250    1.8960 o         1 M7P     -0.914833
      2 P           3.5900    1.4290    0.9770 p5        1 M7P      1.328900
      3 O8          5.1070    1.4980    0.8730 o         1 M7P     -0.914833
      4 O9          3.0120    0.0490    0.9040 o         1 M7P     -0.914833
      5 O7          3.2000    2.0980   -0.5940 os        1 M7P     -0.590200
      6 C7          3.1340    1.1960   -1.6280 c3        1 M7P      0.178400
      7 C6          4.2230    1.4550   -2.7110 c3        1 M7P      0.114100
      8 O6          3.7810    2.4110   -3.6650 oh        1 M7P     -0.645800
      9 C5          5.5190    1.8710   -2.0220 c3        1 M7P     -0.006900
     10 O5          6.6130    1.1070   -2.5480 os        1 M7P     -0.451600
     11 C1          7.7800    1.1980   -1.7510 c3        1 M7P      0.330900
     12 O1          7.6100    0.4570   -0.5820 oh        1 M7P     -0.660800
     13 C2          8.2360    2.6540   -1.4750 c3        1 M7P      0.095100
     14 O2          8.9760    3.1260   -2.5900 oh        1 M7P     -0.614800
     15 C3          7.0520    3.5580   -1.1200 c3        1 M7P      0.057100
     16 O3          7.5030    4.9070   -1.1430 oh        1 M7P     -0.625800
     17 C4          5.8890    3.3530   -2.1150 c3        1 M7P      0.119100
     18 O4          4.8350    4.2330   -1.7840 oh        1 M7P     -0.651800
     19 H71         3.2540    0.1420   -1.2460 h1        1 M7P      0.017700
     20 H72         2.1380    1.2910   -2.1530 h1        1 M7P      0.017700
     21 H6          4.3930    0.5220   -3.3160 h1        1 M7P      0.049700
     22 HO6         3.4880    3.1810   -3.1600 ho        1 M7P      0.412000
     23 H5          5.3790    1.6210   -0.9020 h1        1 M7P      0.192700
     24 H1          8.5770    0.6670   -2.3500 h2        1 M7P      0.061700
     25 HO1         6.8330    0.7810   -0.0740 ho        1 M7P      0.498000
     26 H2          8.9760    2.6480   -0.6280 h1        1 M7P      0.074700
     27 HO2         8.3310    3.3920   -3.2560 ho        1 M7P      0.400000
     28 H3          6.6820    3.2900   -0.0820 h1        1 M7P      0.121700
     29 HO3         6.6990    5.4400   -1.0690 ho        1 M7P      0.410000
     30 H4          6.1940    3.6450   -3.1570 h1        1 M7P      0.039700
     31 HO4         4.2880    3.7990   -1.1010 ho        1 M7P      0.473000
@<TRIPOS>BOND
     1    1    2 1   
     2    2    3 1   
     3    2    4 1   
     4    2    5 1   
     5    5    6 1   
     6    6    7 1   
     7    6   19 1   
     8    6   20 1   
     9    7    8 1   
    10    7    9 1   
    11    7   21 1   
    12    8   22 1   
    13    9   10 1   
    14    9   17 1   
    15    9   23 1   
    16   10   11 1   
    17   11   12 1   
    18   11   13 1   
    19   11   24 1   
    20   12   25 1   
    21   13   14 1   
    22   13   15 1   
    23   13   26 1   
    24   14   27 1   
    25   15   16 1   
    26   15   17 1   
    27   15   28 1   
    28   16   29 1   
    29   17   18 1   
    30   17   30 1   
    31   18   31 1   
@<TRIPOS>SUBSTRUCTURE
     1 M7P         1 TEMP              0 ****  ****    0 ROOT
