@<TRIPOS>MOLECULE
molecule
   31    31     1     0     0
SMALL
bcc


@<TRIPOS>ATOM
      1 O10          0.0000     0.0000     0.0000 o          1 M7P      -0.913833
      2 P            1.6090     0.0000     0.0000 p5         1 M7P       1.161900
      3 O8           2.1030     0.0000     1.3950 o          1 M7P      -0.913833
      4 O9           2.1460    -1.3140    -0.7590 o          1 M7P      -0.913833
      5 O7           2.1460     1.3140    -0.7590 os         1 M7P      -0.548200
      6 C7           3.5690     1.3190    -0.6230 c3         1 M7P       0.142400
      7 C6           4.1450     2.5490    -1.3270 c3         1 M7P       0.151100
      8 O6           3.6980     3.7320    -0.6600 oh         1 M7P      -0.603800
      9 C5           5.6730     2.4880    -1.2900 c3         1 M7P       0.128100
     10 O5           6.1170     1.3060    -1.9530 os         1 M7P      -0.349600
     11 C1           7.5240     1.1940    -1.7420 c3         1 M7P       0.315900
     12 O1           7.8010     1.2850    -0.3430 oh         1 M7P      -0.619800
     13 C2           8.2500     2.3230    -2.4780 c3         1 M7P       0.097100
     14 O2           7.9510     2.2520    -3.8730 oh         1 M7P      -0.569800
     15 C3           7.7790     3.6700    -1.9170 c3         1 M7P       0.118100
     16 O3           8.3360     4.7330    -2.6930 oh         1 M7P      -0.609800
     17 C4           6.2480     3.7220    -1.9910 c3         1 M7P       0.121100
     18 O4           5.7780     4.9040    -1.3400 oh         1 M7P      -0.572800
     19 H71          3.8310     1.3480     0.4270 h1         1 M7P       0.054700
     20 H72          3.9770     0.4220    -1.0730 h1         1 M7P       0.054700
     21 H6           3.8090     2.5670    -2.3570 h1         1 M7P       0.028700
     22 HO6          2.9080     4.0430    -1.0680 ho         1 M7P       0.402000
     23 H5           6.0130     2.4700    -0.2610 h1         1 M7P       0.084700
     24 H1           7.8680     0.2400    -2.1200 h2         1 M7P       0.054700
     25 HO1          8.2220     0.4920    -0.0530 ho         1 M7P       0.407000
     26 H2           9.3180     2.2230    -2.3260 h1         1 M7P       0.016700
     27 HO2          8.6650     1.8360    -4.3270 ho         1 M7P       0.385000
     28 H3           8.0950     3.7620    -0.8850 h1         1 M7P       0.062700
     29 HO3          8.9790     5.1930    -2.1800 ho         1 M7P       0.384000
     30 H4           5.9370     3.7250    -3.0290 h1         1 M7P       0.058700
     31 HO4          5.6590     5.5880    -1.9780 ho         1 M7P       0.386000
@<TRIPOS>BOND
     1     1     2 1
     2     2     3 1
     3     2     4 1
     4     2     5 1
     5     5     6 1
     6     6     7 1
     7     6    19 1
     8     6    20 1
     9     7     8 1
    10     7     9 1
    11     7    21 1
    12     8    22 1
    13     9    10 1
    14     9    17 1
    15     9    23 1
    16    10    11 1
    17    11    12 1
    18    11    13 1
    19    11    24 1
    20    12    25 1
    21    13    14 1
    22    13    15 1
    23    13    26 1
    24    14    27 1
    25    15    16 1
    26    15    17 1
    27    15    28 1
    28    16    29 1
    29    17    18 1
    30    17    30 1
    31    18    31 1
@<TRIPOS>SUBSTRUCTURE
     1 M7P         1 TEMP              0 ****  ****    0 ROOT
