@<TRIPOS>MOLECULE
molecule
   84    89     1     0     0
SMALL
bcc


@<TRIPOS>ATOM
      1 C1           0.0000     0.0000     0.0000 c          1 M7R       0.898600
      2 O1          -0.6050    -0.0010     1.0470 o          1 M7R      -0.845800
      3 C2           1.5060     0.0000     0.0000 c3         1 M7R      -0.168700
      4 O2          -0.6720    -0.0050    -1.1620 o          1 M7R      -0.845800
      5 C3           2.0170     0.0000     1.4420 c3         1 M7R      -0.016100
      6 O3           0.5250     1.0250    -6.1470 os         1 M7R      -0.335900
      7 C4           1.6180    -1.2880     2.1160 ca         1 M7R      -0.060300
      8 C5           2.0160     1.2500    -0.7210 c3         1 M7R      -0.008100
      9 C6           1.6170     1.1890    -2.1730 ca         1 M7R      -0.089300
     10 C7           0.4110     1.7280    -2.5810 ca         1 M7R       0.028000
     11 C8           0.0430     1.6750    -3.9110 ca         1 M7R      -0.165300
     12 C9           0.8850     1.0790    -4.8390 ca         1 M7R       0.137100
     13 C10          2.0950     0.5390    -4.4280 ca         1 M7R      -0.249000
     14 C11          2.4610     0.6000    -3.0970 ca         1 M7R      -0.089000
     15 C12          1.4410     0.3960    -7.0470 c3         1 M7R       0.142400
     16 C13          0.8690     0.4300    -8.4650 c3         1 M7R      -0.085400
     17 C14          1.8490    -0.2420    -9.4280 c3         1 M7R      -0.091100
     18 C15         -1.2720     2.2620    -4.3540 c3         1 M7R       0.183300
     19 C17         -5.8130     0.6960    -5.4580 ca         1 M7R      -0.082500
     20 C19         -6.7370    -0.3180    -5.6010 ca         1 M7R      -0.144500
     21 C22         -4.1530    -0.9250    -4.7950 ca         1 M7R      -0.082500
     22 C23         -7.3900    -2.7310    -5.5000 c3         1 M7R      -0.009700
     23 C24         -6.7420    -4.0730    -5.1560 c3         1 M7R      -0.060400
     24 C25         -7.8910    -2.7610    -6.9460 c3         1 M7R      -0.060400
     25 C26         -8.5690    -2.4780    -4.5580 c3         1 M7R      -0.060400
     26 C27         -7.7720    -5.1930    -5.3170 c3         1 M7R      -0.066367
     27 C28         -8.9210    -3.8800    -7.1050 c3         1 M7R      -0.066367
     28 C29         -9.5990    -3.5970    -4.7180 c3         1 M7R      -0.066367
     29 C30         -8.2720    -5.2230    -6.7630 c3         1 M7R      -0.067400
     30 C31         -8.9510    -4.9400    -4.3740 c3         1 M7R      -0.067400
     31 C32        -10.0990    -3.6280    -6.1630 c3         1 M7R      -0.067400
     32 C51          2.4580    -2.3840     2.0630 ca         1 M7R      -0.101000
     33 C52          2.0930    -3.5660     2.6810 ca         1 M7R      -0.153500
     34 C53          0.8870    -3.6500     3.3520 ca         1 M7R      -0.148000
     35 C54          0.0480    -2.5540     3.4060 ca         1 M7R      -0.153500
     36 C55          0.4150    -1.3710     2.7910 ca         1 M7R      -0.101000
     37 C87         -4.5110     0.3990    -5.0540 ca         1 M7R      -0.135600
     38 C97         -3.5150     1.4800    -4.8990 c          1 M7R       0.668700
     39 C98         -6.3750    -1.6280    -5.3430 ca         1 M7R      -0.064300
     40 C99         -5.0860    -1.9300    -4.9410 ca         1 M7R      -0.144500
     41 N99         -2.2580     1.1890    -4.5070 ns         1 M7R      -0.549900
     42 O99         -3.8290     2.6330    -5.1250 o          1 M7R      -0.644100
     43 H2           1.8670    -0.8840    -0.5110 hc         1 M7R       0.054700
     44 H3           1.5850     0.8370     1.9780 hc         1 M7R       0.032200
     45 H3A          3.0960     0.0890     1.4430 hc         1 M7R       0.032200
     46 H5           1.5840     2.1320    -0.2650 hc         1 M7R       0.028200
     47 H5A          3.0950     1.2960    -0.6450 hc         1 M7R       0.028200
     48 H7          -0.2460     2.1930    -1.8560 ha         1 M7R       0.163000
     49 H10          2.7570     0.0780    -5.1510 ha         1 M7R       0.114000
     50 H11          3.4060     0.1790    -2.7760 ha         1 M7R       0.115000
     51 H12          1.5950    -0.6320    -6.7440 h1         1 M7R       0.030700
     52 H12A         2.3870     0.9240    -7.0260 h1         1 M7R       0.030700
     53 H13         -0.0760    -0.0980    -8.4860 hc         1 M7R       0.052700
     54 H13A         0.7140     1.4580    -8.7680 hc         1 M7R       0.052700
     55 H14          1.4430    -0.2180   -10.4320 hc         1 M7R       0.031700
     56 H14A         2.0040    -1.2710    -9.1260 hc         1 M7R       0.031700
     57 H14B         2.7950     0.2860    -9.4080 hc         1 M7R       0.031700
     58 H15         -1.1400     2.7690    -5.3020 h1         1 M7R       0.049700
     59 H15A        -1.6210     2.9690    -3.6110 h1         1 M7R       0.049700
     60 H17         -6.0970     1.7220    -5.6610 ha         1 M7R       0.149000
     61 H19         -7.7480    -0.0880    -5.9150 ha         1 M7R       0.130000
     62 H22         -3.1440    -1.1630    -4.4800 ha         1 M7R       0.149000
     63 H24         -5.9070    -4.2530    -5.8230 hc         1 M7R       0.047533
     64 H24A        -6.3890    -4.0520    -4.1330 hc         1 M7R       0.047533
     65 H25         -7.0560    -2.9400    -7.6130 hc         1 M7R       0.047533
     66 H25A        -8.3500    -1.8100    -7.1880 hc         1 M7R       0.047533
     67 H26         -8.2150    -2.4570    -3.5340 hc         1 M7R       0.047533
     68 H26A        -9.0280    -1.5270    -4.8000 hc         1 M7R       0.047533
     69 H27         -7.3130    -6.1430    -5.0740 hc         1 M7R       0.044033
     70 H28         -9.2750    -3.9010    -8.1290 hc         1 M7R       0.044033
     71 H29        -10.4330    -3.4180    -4.0510 hc         1 M7R       0.044033
     72 H30         -9.0010    -6.0160    -6.8760 hc         1 M7R       0.037367
     73 H30A        -7.4380    -5.4020    -7.4300 hc         1 M7R       0.037367
     74 H31         -8.5970    -4.9180    -3.3510 hc         1 M7R       0.037367
     75 H31A        -9.6800    -5.7330    -4.4880 hc         1 M7R       0.037367
     76 H32        -10.8280    -4.4220    -6.2760 hc         1 M7R       0.037367
     77 H32A       -10.5590    -2.6780    -6.4060 hc         1 M7R       0.037367
     78 H51          3.4030    -2.3180     1.5370 ha         1 M7R       0.150500
     79 H52          2.7510    -4.4250     2.6390 ha         1 M7R       0.110000
     80 H53          0.6000    -4.5760     3.8350 ha         1 M7R       0.104000
     81 H54         -0.8960    -2.6200     3.9340 ha         1 M7R       0.110000
     82 H55         -0.2430    -0.5110     2.8340 ha         1 M7R       0.150500
     83 H99         -4.8090    -2.9580    -4.7410 ha         1 M7R       0.130000
     84 HN99        -2.0100     0.2450    -4.2850 hn         1 M7R       0.335500
@<TRIPOS>BOND
     1     1     2 1
     2     1     3 1
     3     1     4 1
     4     3     5 1
     5     3     8 1
     6     5     7 1
     7     6    12 1
     8     6    15 1
     9     7    32 ar
    10     7    36 ar
    11     8     9 1
    12     9    10 ar
    13     9    14 ar
    14    10    11 ar
    15    11    12 ar
    16    11    18 1
    17    12    13 ar
    18    13    14 ar
    19    15    16 1
    20    16    17 1
    21    18    41 1
    22    19    20 ar
    23    19    37 ar
    24    20    39 ar
    25    21    37 ar
    26    21    40 ar
    27    22    23 1
    28    22    24 1
    29    22    25 1
    30    22    39 1
    31    23    26 1
    32    24    27 1
    33    25    28 1
    34    26    29 1
    35    26    30 1
    36    27    29 1
    37    27    31 1
    38    28    30 1
    39    28    31 1
    40    32    33 ar
    41    33    34 ar
    42    34    35 ar
    43    35    36 ar
    44    37    38 1
    45    38    41 1
    46    38    42 2
    47    39    40 ar
    48     3    43 1
    49     5    44 1
    50     5    45 1
    51     8    46 1
    52     8    47 1
    53    10    48 1
    54    13    49 1
    55    14    50 1
    56    15    51 1
    57    15    52 1
    58    16    53 1
    59    16    54 1
    60    17    55 1
    61    17    56 1
    62    17    57 1
    63    18    58 1
    64    18    59 1
    65    19    60 1
    66    20    61 1
    67    21    62 1
    68    23    63 1
    69    23    64 1
    70    24    65 1
    71    24    66 1
    72    25    67 1
    73    25    68 1
    74    26    69 1
    75    27    70 1
    76    28    71 1
    77    29    72 1
    78    29    73 1
    79    30    74 1
    80    30    75 1
    81    31    76 1
    82    31    77 1
    83    32    78 1
    84    33    79 1
    85    34    80 1
    86    35    81 1
    87    36    82 1
    88    40    83 1
    89    41    84 1
@<TRIPOS>SUBSTRUCTURE
     1 M7R         1 TEMP              0 ****  ****    0 ROOT
