@<TRIPOS>MOLECULE
M7S
   84    89     1     0     0
SMALL
bcc


@<TRIPOS>ATOM
      1 C1           0.0000     0.0000     0.0000 c          1 M7S       0.978600
      2 O1          -0.6050    -0.6230     0.8400 o          1 M7S      -0.894800
      3 C2           1.5070     0.0000     0.0000 c3         1 M7S      -0.149700
      4 O2          -0.6710     0.6870    -0.9380 o          1 M7S      -0.894800
      5 C3           2.0160     0.0000     1.4430 c3         1 M7S       0.034900
      6 O3           0.5290    -1.0230    -6.1480 os         1 M7S      -0.317900
      7 C4           3.5170     0.1380     1.4460 ca         1 M7S      -0.059300
      8 C5           2.0170    -1.2490    -0.7210 c3         1 M7S       0.036900
      9 C6           1.6190    -1.1890    -2.1730 ca         1 M7S      -0.079300
     10 C7           2.4610    -0.5950    -3.0950 ca         1 M7S      -0.049000
     11 C8           2.0980    -0.5380    -4.4270 ca         1 M7S      -0.189300
     12 C9           0.8890    -1.0770    -4.8390 ca         1 M7S       0.143100
     13 C10          0.0450    -1.6740    -3.9110 ca         1 M7S      -0.236000
     14 C11          0.4150    -1.7340    -2.5820 ca         1 M7S       0.046000
     15 C12         -0.7310    -1.5990    -6.5010 c3         1 M7S       0.200400
     16 C13         -0.9600    -1.4440    -8.0050 c3         1 M7S      -0.036400
     17 C14         -2.3080    -2.0600    -8.3820 c3         1 M7S       0.010900
     18 C15          3.0150     0.1110    -5.4320 c3         1 M7S       0.126300
     19 C17          3.4350     4.4200    -7.7830 ca         1 M7S      -0.057000
     20 C19          2.9890     5.6990    -8.0460 ca         1 M7S      -0.124500
     21 C22          1.6030     4.1100    -6.2420 ca         1 M7S      -0.057000
     22 C23          1.3760     7.5810    -7.7040 c3         1 M7S       0.000300
     23 C24          0.1180     7.8690    -6.8820 c3         1 M7S      -0.017067
     24 C25          1.0510     7.7090    -9.1940 c3         1 M7S      -0.017067
     25 C26          2.4700     8.5850    -7.3330 c3         1 M7S      -0.017067
     26 C27         -0.3710     9.2890    -7.1790 c3         1 M7S      -0.040367
     27 C28          0.5630     9.1280    -9.4900 c3         1 M7S      -0.040367
     28 C29          1.9800    10.0050    -7.6290 c3         1 M7S      -0.040367
     29 C30         -0.6950     9.4150    -8.6680 c3         1 M7S      -0.016400
     30 C31          0.7220    10.2920    -6.8070 c3         1 M7S      -0.016400
     31 C32          1.6550    10.1320    -9.1190 c3         1 M7S      -0.016400
     32 C51          4.0960     1.3920     1.3700 ca         1 M7S      -0.105500
     33 C52          5.4720     1.5190     1.3730 ca         1 M7S      -0.110000
     34 C53          6.2700     0.3930     1.4510 ca         1 M7S      -0.131000
     35 C54          5.6910    -0.8600     1.5280 ca         1 M7S      -0.110000
     36 C55          4.3150    -0.9870     1.5300 ca         1 M7S      -0.105500
     37 C87          2.7450     3.6160    -6.8770 ca         1 M7S      -0.151600
     38 C97          3.2160     2.2440    -6.5910 c          1 M7S       0.585700
     39 C98          1.8580     6.1840    -7.4130 ca         1 M7S      -0.067300
     40 C99          1.1670     5.3910    -6.5130 ca         1 M7S      -0.124500
     41 N99          2.5470     1.4700    -5.7150 ns         1 M7S      -0.170900
     42 O99          4.2100     1.8150    -7.1450 o          1 M7S      -0.679100
     43 H2           1.8680     0.8850    -0.5100 hc         1 M7S       0.031700
     44 H3           1.7380    -0.9300     1.9240 hc         1 M7S       0.028700
     45 H3A          1.5760     0.8310     1.9810 hc         1 M7S       0.028700
     46 H5           1.5860    -2.1310    -0.2640 hc         1 M7S       0.011200
     47 H5A          3.0970    -1.2940    -0.6440 hc         1 M7S       0.011200
     48 H7           3.4180    -0.2000    -2.7770 ha         1 M7S       0.105000
     49 H10         -0.9190    -2.0550    -4.2220 ha         1 M7S       0.115000
     50 H11         -0.1370    -2.5610    -2.1530 ha         1 M7S       0.101000
     51 H12         -0.7310    -2.6510    -6.2420 h1         1 M7S       0.004700
     52 H12A        -1.5220    -1.0940    -5.9600 h1         1 M7S       0.004700
     53 H13         -0.1690    -1.9490    -8.5450 hc         1 M7S       0.019200
     54 H13A        -0.9590    -0.3920    -8.2630 hc         1 M7S       0.019200
     55 H14         -2.4800    -1.9310    -9.4440 hc         1 M7S      -0.000633
     56 H14A        -3.0980    -1.5680    -7.8270 hc         1 M7S      -0.000633
     57 H14B        -2.3020    -3.1160    -8.1430 hc         1 M7S      -0.000633
     58 H15          4.0200     0.1510    -5.0300 h1         1 M7S       0.023700
     59 H15A         3.0150    -0.4690    -6.3470 h1         1 M7S       0.023700
     60 H17          4.3210     4.0420    -8.2790 ha         1 M7S       0.120500
     61 H19          3.5250     6.3240    -8.7490 ha         1 M7S       0.114500
     62 H22          1.0620     3.4900    -5.5380 ha         1 M7S       0.120500
     63 H24         -0.6560     7.1590    -7.1460 hc         1 M7S       0.023033
     64 H24A         0.3470     7.7790    -5.8270 hc         1 M7S       0.023033
     65 H25          1.9420     7.5050    -9.7760 hc         1 M7S       0.023033
     66 H25A         0.2770     6.9980    -9.4570 hc         1 M7S       0.023033
     67 H26          3.3600     8.3820    -7.9160 hc         1 M7S       0.023033
     68 H26A         2.7000     8.4950    -6.2780 hc         1 M7S       0.023033
     69 H27         -1.2610     9.4930    -6.5960 hc         1 M7S       0.020700
     70 H28          0.3330     9.2180   -10.5450 hc         1 M7S       0.020700
     71 H29          2.7540    10.7160    -7.3660 hc         1 M7S       0.020700
     72 H30         -1.4690     8.7040    -8.9310 hc         1 M7S       0.012533
     73 H30A        -1.0420    10.4200    -8.8780 hc         1 M7S       0.012533
     74 H31          0.9510    10.2020    -5.7520 hc         1 M7S       0.012533
     75 H31A         0.3760    11.2970    -7.0160 hc         1 M7S       0.012533
     76 H32          1.3080    11.1370    -9.3280 hc         1 M7S       0.012533
     77 H32A         2.5460     9.9290    -9.7010 hc         1 M7S       0.012533
     78 H51          3.4700     2.2740     1.3090 ha         1 M7S       0.110000
     79 H52          5.9250     2.5010     1.3130 ha         1 M7S       0.091500
     80 H53          7.3490     0.4930     1.4520 ha         1 M7S       0.090000
     81 H54          6.3170    -1.7420     1.5920 ha         1 M7S       0.091500
     82 H55          3.8610    -1.9690     1.5910 ha         1 M7S       0.110000
     83 H99          0.2830     5.7760    -6.0210 ha         1 M7S       0.114500
     84 HN99         1.7510     1.8360    -5.2300 hn         1 M7S       0.192500
@<TRIPOS>BOND
     1     1     2 1   
     2     1     3 1   
     3     1     4 1   
     4     3     5 1   
     5     3     8 1   
     6     3    43 1   
     7     5     7 1   
     8     5    44 1   
     9     5    45 1   
    10     6    12 1   
    11     6    15 1   
    12     7    32 ar  
    13     7    36 ar  
    14     8     9 1   
    15     8    46 1   
    16     8    47 1   
    17     9    10 ar  
    18     9    14 ar  
    19    10    11 ar  
    20    10    48 1   
    21    11    12 ar  
    22    11    18 1   
    23    12    13 ar  
    24    13    14 ar  
    25    13    49 1   
    26    14    50 1   
    27    15    16 1   
    28    15    51 1   
    29    15    52 1   
    30    16    17 1   
    31    16    53 1   
    32    16    54 1   
    33    17    55 1   
    34    17    56 1   
    35    17    57 1   
    36    18    41 1   
    37    18    58 1   
    38    18    59 1   
    39    19    20 ar  
    40    19    37 ar  
    41    19    60 1   
    42    20    39 ar  
    43    20    61 1   
    44    21    37 ar  
    45    21    40 ar  
    46    21    62 1   
    47    22    23 1   
    48    22    24 1   
    49    22    25 1   
    50    22    39 1   
    51    23    26 1   
    52    23    63 1   
    53    23    64 1   
    54    24    27 1   
    55    24    65 1   
    56    24    66 1   
    57    25    28 1   
    58    25    67 1   
    59    25    68 1   
    60    26    29 1   
    61    26    30 1   
    62    26    69 1   
    63    27    29 1   
    64    27    31 1   
    65    27    70 1   
    66    28    30 1   
    67    28    31 1   
    68    28    71 1   
    69    29    72 1   
    70    29    73 1   
    71    30    74 1   
    72    30    75 1   
    73    31    76 1   
    74    31    77 1   
    75    32    33 ar  
    76    32    78 1   
    77    33    34 ar  
    78    33    79 1   
    79    34    35 ar  
    80    34    80 1   
    81    35    36 ar  
    82    35    81 1   
    83    36    82 1   
    84    37    38 1   
    85    38    41 1   
    86    38    42 2   
    87    39    40 ar  
    88    40    83 1   
    89    41    84 1   
@<TRIPOS>SUBSTRUCTURE
     1 M7S         1 TEMP              0 ****  ****    0 ROOT
