@<TRIPOS>MOLECULE
molecule
  120   119     1     0     0
SMALL
bcc


@<TRIPOS>ATOM
      1 C            0.0000     0.0000     0.0000 c3         1 M7U      -0.092100
      2 O           16.3900     0.0030     9.0530 o          1 M7U      -0.587000
      3 P           18.4920     3.6150    12.7180 p5         1 M7U       1.178900
      4 C1           1.5300     0.0000     0.0000 c3         1 M7U      -0.084400
      5 O1          16.4570     0.0040    11.2610 os         1 M7U      -0.387900
      6 C2           2.0400     0.0000     1.4430 c3         1 M7U      -0.081400
      7 C3           3.5700     0.0000     1.4430 c3         1 M7U      -0.082400
      8 O3          19.2240    -1.5000    14.7920 o          1 M7U      -0.634000
      9 C4           4.0800     0.0010     2.8850 c3         1 M7U      -0.082400
     10 C5           5.6100     0.0010     2.8850 c3         1 M7U      -0.082400
     11 O5          19.9460     3.8050    12.5260 o          1 M7U      -0.910500
     12 C6           6.1200     0.0010     4.3280 c3         1 M7U      -0.082400
     13 O6          17.6850     4.5930    11.7260 o          1 M7U      -0.910500
     14 C7           7.6500     0.0020     4.3280 c3         1 M7U      -0.082400
     15 O7          18.1040     3.9580    14.2430 o          1 M7U      -0.910500
     16 C8           8.1600     0.0020     5.7710 c3         1 M7U      -0.082400
     17 C9           9.6900     0.0020     5.7710 c3         1 M7U      -0.082400
     18 C10         10.2000     0.0020     7.2140 c3         1 M7U      -0.082400
     19 C11         11.7290     0.0030     7.2140 c3         1 M7U      -0.080400
     20 C12         12.2390     0.0030     8.6560 c3         1 M7U      -0.084400
     21 C13         13.7690     0.0030     8.6560 c3         1 M7U      -0.071400
     22 C14         14.2790     0.0040    10.0990 c3         1 M7U      -0.129400
     23 C15         15.7860     0.0030    10.0990 c          1 M7U       0.640100
     24 C16         17.9070     0.0040    11.1860 c3         1 M7U       0.132100
     25 C17         18.4820    -0.7160    12.4070 c3         1 M7U       0.165400
     26 C18         18.5950    -0.4680    14.7740 c          1 M7U       0.642100
     27 C19         18.2990     0.2560    16.0630 c3         1 M7U      -0.128400
     28 C20         18.9030    -0.5210    17.2350 c3         1 M7U      -0.070400
     29 C21         18.6020     0.2130    18.5420 c3         1 M7U      -0.083400
     30 C22         19.2050    -0.5630    19.7150 c3         1 M7U      -0.081400
     31 C23         18.9050     0.1710    21.0220 c3         1 M7U      -0.082400
     32 C24         19.5070    -0.6050    22.1940 c3         1 M7U      -0.082400
     33 C25         19.2070     0.1290    23.5020 c3         1 M7U      -0.084400
     34 C26         19.8100    -0.6480    24.6740 c3         1 M7U      -0.077400
     35 C27         19.5100     0.0870    25.9810 c3         1 M7U      -0.075700
     36 C28         20.2240     1.4390    25.9830 c3         1 M7U      -0.092100
     37 C29         20.0040    -0.7520    27.1630 c3         1 M7U      -0.076400
     38 C30         19.5930    -0.0770    28.4730 c3         1 M7U      -0.083400
     39 C31         20.0860    -0.9160    29.6540 c3         1 M7U      -0.082400
     40 C32         19.6760    -0.2420    30.9650 c3         1 M7U      -0.082400
     41 C33         20.1690    -1.0800    32.1460 c3         1 M7U      -0.082400
     42 C34         19.7590    -0.4060    33.4570 c3         1 M7U      -0.081400
     43 C35         20.2520    -1.2440    34.6380 c3         1 M7U      -0.084400
     44 C36         19.8420    -0.5710    35.9480 c3         1 M7U      -0.092100
     45 C37         18.4160     1.4460    11.1590 c3         1 M7U       0.205400
     46 H           -0.3610    -0.8810     0.5170 hc         1 M7U       0.030700
     47 HA          -0.3610     0.8880     0.5040 hc         1 M7U       0.030700
     48 HB          -0.3610    -0.0070    -1.0210 hc         1 M7U       0.030700
     49 H1           1.8910    -0.8850    -0.5110 hc         1 M7U       0.039200
     50 H1A          1.8910     0.8850    -0.5110 hc         1 M7U       0.039200
     51 H2           1.6790    -0.8850     1.9530 hc         1 M7U       0.040200
     52 H2A          1.6790     0.8850     1.9530 hc         1 M7U       0.040200
     53 H3           3.9310     0.8840     0.9310 hc         1 M7U       0.040200
     54 H3A          3.9310    -0.8850     0.9330 hc         1 M7U       0.040200
     55 H4           3.7190     0.8860     3.3960 hc         1 M7U       0.040700
     56 H4A          3.7190    -0.8830     3.3970 hc         1 M7U       0.040700
     57 H5           5.9710     0.8850     2.3750 hc         1 M7U       0.040700
     58 H5A          5.9710    -0.8840     2.3750 hc         1 M7U       0.040700
     59 H6           5.7590    -0.8840     4.8390 hc         1 M7U       0.040200
     60 H6A          5.7580     0.8850     4.8390 hc         1 M7U       0.040200
     61 H7           8.0110    -0.8820     3.8170 hc         1 M7U       0.040200
     62 H7A          8.0100     0.8870     3.8180 hc         1 M7U       0.040200
     63 H8           7.7980    -0.8830     6.2820 hc         1 M7U       0.039700
     64 H8A          7.7980     0.8860     6.2820 hc         1 M7U       0.039700
     65 H9          10.0510    -0.8830     5.2600 hc         1 M7U       0.040700
     66 H9A         10.0510     0.8860     5.2600 hc         1 M7U       0.040700
     67 H10          9.8390    -0.8830     7.7240 hc         1 M7U       0.039200
     68 H10A         9.8380     0.8860     7.7250 hc         1 M7U       0.039200
     69 H11         12.0900     0.8880     6.7030 hc         1 M7U       0.041700
     70 H11A        12.0910    -0.8810     6.7030 hc         1 M7U       0.041700
     71 H12         11.8780    -0.8820     9.1670 hc         1 M7U       0.038200
     72 H12A        11.8780     0.8870     9.1670 hc         1 M7U       0.038200
     73 H13         14.1300     0.8870     8.1450 hc         1 M7U       0.055200
     74 H13A        14.1300    -0.8820     8.1460 hc         1 M7U       0.055200
     75 H14         13.9180     0.8890    10.6090 hc         1 M7U       0.069200
     76 H14A        13.9180    -0.8800    10.6110 hc         1 M7U       0.069200
     77 H16         18.2220    -0.5070    10.2840 h1         1 M7U       0.044700
     78 H17         18.0530    -1.7090    12.4760 h1         1 M7U       0.031700
     79 H17A        19.5580    -0.7940    12.3080 h1         1 M7U       0.031700
     80 H19         18.7310     1.2480    16.0270 hc         1 M7U       0.100200
     81 H19A        17.2260     0.3330    16.1950 hc         1 M7U       0.100200
     82 H20         19.9750    -0.5990    17.1030 hc         1 M7U       0.041700
     83 H20A        18.4700    -1.5140    17.2710 hc         1 M7U       0.041700
     84 H21         17.5290     0.2910    18.6750 hc         1 M7U       0.049200
     85 H21A        19.0340     1.2060    18.5060 hc         1 M7U       0.049200
     86 H22         18.7740    -1.5560    19.7500 hc         1 M7U       0.034700
     87 H22A        20.2780    -0.6400    19.5820 hc         1 M7U       0.034700
     88 H23         17.8320     0.2490    21.1540 hc         1 M7U       0.043200
     89 H23A        19.3370     1.1640    20.9860 hc         1 M7U       0.043200
     90 H24         20.5800    -0.6830    22.0630 hc         1 M7U       0.036700
     91 H24A        19.0750    -1.5980    22.2300 hc         1 M7U       0.036700
     92 H25         19.6390     1.1220    23.4660 hc         1 M7U       0.042700
     93 H25A        18.1340     0.2070    23.6340 hc         1 M7U       0.042700
     94 H26         20.8830    -0.7250    24.5420 hc         1 M7U       0.038700
     95 H26A        19.3780    -1.6410    24.7100 hc         1 M7U       0.038700
     96 H27         18.4410     0.2430    26.0710 hc         1 M7U       0.049700
     97 H28         21.0280     1.4220    26.7090 hc         1 M7U       0.035367
     98 H28A        19.5190     2.2200    26.2420 hc         1 M7U       0.035367
     99 H28B        20.6320     1.6330    24.9980 hc         1 M7U       0.035367
    100 H29         19.5650    -1.7410    27.1120 hc         1 M7U       0.039700
    101 H29A        21.0830    -0.8340    27.1210 hc         1 M7U       0.039700
    102 H30         18.5140     0.0050    28.5140 hc         1 M7U       0.042200
    103 H30A        20.0330     0.9110    28.5240 hc         1 M7U       0.042200
    104 H31         19.6460    -1.9040    29.6030 hc         1 M7U       0.039700
    105 H31A        21.1650    -0.9980    29.6130 hc         1 M7U       0.039700
    106 H32         20.1150     0.7470    31.0160 hc         1 M7U       0.040700
    107 H32A        18.5960    -0.1600    31.0070 hc         1 M7U       0.040700
    108 H33         21.2490    -1.1620    32.1040 hc         1 M7U       0.039700
    109 H33A        19.7300    -2.0690    32.0950 hc         1 M7U       0.039700
    110 H34         18.6800    -0.3240    33.4980 hc         1 M7U       0.040700
    111 H34A        20.1990     0.5830    33.5080 hc         1 M7U       0.040700
    112 H35         19.8130    -2.2330    34.5870 hc         1 M7U       0.038700
    113 H35A        21.3320    -1.3260    34.5970 hc         1 M7U       0.038700
    114 H36         20.2670    -1.1150    36.7830 hc         1 M7U       0.030700
    115 H36A        18.7610    -0.5690    36.0310 hc         1 M7U       0.030700
    116 H36B        20.2060     0.4500    35.9590 hc         1 M7U       0.030700
    117 H37         19.4900     1.4480    11.0130 h1         1 M7U       0.027700
    118 H37A        17.9410     1.9820    10.3460 h1         1 M7U       0.027700
    119 O2          18.1600     0.0330    13.6070 os         1 M7U      -0.312900
    120 O4          18.1030     2.0860    12.3980 os         1 M7U      -0.560200
@<TRIPOS>BOND
     1     1     4 1
     2     2    23 2
     3     3   120 1
     4     3    11 1
     5     3    13 1
     6     3    15 1
     7     4     6 1
     8     5    23 1
     9     5    24 1
    10     6     7 1
    11   119    25 1
    12   119    26 1
    13     7     9 1
    14     8    26 2
    15     9    10 1
    16   120    45 1
    17    10    12 1
    18    12    14 1
    19    14    16 1
    20    16    17 1
    21    17    18 1
    22    18    19 1
    23    19    20 1
    24    20    21 1
    25    21    22 1
    26    22    23 1
    27    24    25 1
    28    24    45 1
    29    26    27 1
    30    27    28 1
    31    28    29 1
    32    29    30 1
    33    30    31 1
    34    31    32 1
    35    32    33 1
    36    33    34 1
    37    34    35 1
    38    35    36 1
    39    35    37 1
    40    37    38 1
    41    38    39 1
    42    39    40 1
    43    40    41 1
    44    41    42 1
    45    42    43 1
    46    43    44 1
    47     1    46 1
    48     1    47 1
    49     1    48 1
    50     4    49 1
    51     4    50 1
    52     6    51 1
    53     6    52 1
    54     7    53 1
    55     7    54 1
    56     9    55 1
    57     9    56 1
    58    10    57 1
    59    10    58 1
    60    12    59 1
    61    12    60 1
    62    14    61 1
    63    14    62 1
    64    16    63 1
    65    16    64 1
    66    17    65 1
    67    17    66 1
    68    18    67 1
    69    18    68 1
    70    19    69 1
    71    19    70 1
    72    20    71 1
    73    20    72 1
    74    21    73 1
    75    21    74 1
    76    22    75 1
    77    22    76 1
    78    24    77 1
    79    25    78 1
    80    25    79 1
    81    27    80 1
    82    27    81 1
    83    28    82 1
    84    28    83 1
    85    29    84 1
    86    29    85 1
    87    30    86 1
    88    30    87 1
    89    31    88 1
    90    31    89 1
    91    32    90 1
    92    32    91 1
    93    33    92 1
    94    33    93 1
    95    34    94 1
    96    34    95 1
    97    35    96 1
    98    36    97 1
    99    36    98 1
   100    36    99 1
   101    37   100 1
   102    37   101 1
   103    38   102 1
   104    38   103 1
   105    39   104 1
   106    39   105 1
   107    40   106 1
   108    40   107 1
   109    41   108 1
   110    41   109 1
   111    42   110 1
   112    42   111 1
   113    43   112 1
   114    43   113 1
   115    44   114 1
   116    44   115 1
   117    44   116 1
   118    45   117 1
   119    45   118 1
@<TRIPOS>SUBSTRUCTURE
     1 M7U         1 TEMP              0 ****  ****    0 ROOT
