@<TRIPOS>MOLECULE
M7U
  120   119     1     0     0
SMALL
bcc


@<TRIPOS>ATOM
      1 C           1.8980   -0.7350    1.2250 c3        1 M7U     -0.092100
      2 O          16.9670    2.6670   12.1560 o         1 M7U     -0.595000
      3 P          19.2520    0.7310   17.7800 p5        1 M7U      1.330900
      4 C1          3.0700    0.1130    1.6470 c3        1 M7U     -0.080400
      5 O1         16.8870    1.4320   14.0470 os        1 M7U     -0.408900
      6 C2          3.7900   -0.4860    2.8360 c3        1 M7U     -0.079400
      7 C3          4.9660    0.3690    3.2570 c3        1 M7U     -0.079400
      8 O3         17.2350   -1.9600   12.6900 o         1 M7U     -0.619000
      9 C4          5.6860   -0.2310    4.4450 c3        1 M7U     -0.079400
     10 C5          6.8620    0.6240    4.8660 c3        1 M7U     -0.078400
     11 O5         19.4880   -0.5770   17.0570 o         1 M7U     -0.920167
     12 C6          7.5820    0.0240    6.0540 c3        1 M7U     -0.079400
     13 O6         20.3060    1.7840   17.6030 o         1 M7U     -0.920167
     14 C7          8.7580    0.8790    6.4750 c3        1 M7U     -0.078400
     15 O7         18.6250    0.5990   19.1400 o         1 M7U     -0.920167
     16 C8          9.4790    0.2780    7.6620 c3        1 M7U     -0.079400
     17 C9         10.6550    1.1330    8.0830 c3        1 M7U     -0.078400
     18 C10        11.3770    0.5310    9.2700 c3        1 M7U     -0.079400
     19 C11        12.5530    1.3850    9.6910 c3        1 M7U     -0.077400
     20 C12        13.2750    0.7820   10.8770 c3        1 M7U     -0.080400
     21 C13        14.4540    1.6350   11.2930 c3        1 M7U     -0.071400
     22 C14        15.1670    1.0280   12.4790 c3        1 M7U     -0.147400
     23 C15        16.4100    1.7950   12.8340 c         1 M7U      0.643100
     24 C16        18.2460    1.7780   14.4000 c3        1 M7U      0.080100
     25 C17        19.1200    0.5350   14.2160 c3        1 M7U      0.064400
     26 C18        17.6970   -1.3360   13.6630 c         1 M7U      0.659100
     27 C19        17.3900   -1.5460   15.1020 c3        1 M7U     -0.221400
     28 C20        16.4180   -2.6850   15.3130 c3        1 M7U     -0.050400
     29 C21        15.8340   -2.6770   16.7100 c3        1 M7U     -0.066400
     30 C22        16.8640   -2.9790   17.7770 c3        1 M7U     -0.101400
     31 C23        16.2180   -3.0210   19.1460 c3        1 M7U     -0.062400
     32 C24        17.2370   -3.1300   20.2640 c3        1 M7U     -0.060400
     33 C25        17.4160   -1.8180   20.9980 c3        1 M7U     -0.119400
     34 C26        18.3640   -1.9770   22.1670 c3        1 M7U     -0.055400
     35 C27        18.4790   -0.6970   22.9870 c3        1 M7U     -0.054700
     36 C28        19.3510    0.3150   22.2760 c3        1 M7U     -0.127100
     37 C29        19.0170   -1.0240   24.3750 c3        1 M7U     -0.075400
     38 C30        18.9220    0.1550   25.3210 c3        1 M7U     -0.079400
     39 C31        19.3900   -0.2150   26.7120 c3        1 M7U     -0.077400
     40 C32        19.3090    0.9670   27.6540 c3        1 M7U     -0.079400
     41 C33        19.7760    0.5980   29.0460 c3        1 M7U     -0.078400
     42 C34        19.6960    1.7820   29.9860 c3        1 M7U     -0.079400
     43 C35        20.1630    1.4150   31.3790 c3        1 M7U     -0.080400
     44 C36        20.0860    2.5910   32.3180 c3        1 M7U     -0.091100
     45 C37        18.2410    2.2720   15.8710 c3        1 M7U      0.208400
     46 H           2.2360   -1.7600    0.9390 hc        1 M7U      0.030367
     47 HA          1.3810   -0.2760    0.3480 hc        1 M7U      0.030367
     48 HB          1.1600   -0.8310    2.0580 hc        1 M7U      0.030367
     49 H1          3.7870    0.2180    0.7900 hc        1 M7U      0.037700
     50 H1A         2.7130    1.1450    1.9080 hc        1 M7U      0.037700
     51 H2          3.0760   -0.5910    3.6950 hc        1 M7U      0.039200
     52 H2A         4.1490   -1.5170    2.5770 hc        1 M7U      0.039200
     53 H3          5.6810    0.4740    2.3980 hc        1 M7U      0.038700
     54 H3A         4.6080    1.4000    3.5160 hc        1 M7U      0.038700
     55 H4          6.0450   -1.2620    4.1860 hc        1 M7U      0.039200
     56 H4A         4.9720   -0.3360    5.3040 hc        1 M7U      0.039200
     57 H5          7.5760    0.7300    4.0070 hc        1 M7U      0.038200
     58 H5A         6.5030    1.6550    5.1260 hc        1 M7U      0.038200
     59 H6          7.9410   -1.0070    5.7940 hc        1 M7U      0.039200
     60 H6A         6.8680   -0.0820    6.9130 hc        1 M7U      0.039200
     61 H7          8.4000    1.9090    6.7350 hc        1 M7U      0.037700
     62 H7A         9.4730    0.9850    5.6160 hc        1 M7U      0.037700
     63 H8          8.7650    0.1710    8.5210 hc        1 M7U      0.039200
     64 H8A         9.8380   -0.7530    7.4020 hc        1 M7U      0.039200
     65 H9         11.3690    1.2390    7.2250 hc        1 M7U      0.036700
     66 H9A        10.2970    2.1630    8.3440 hc        1 M7U      0.036700
     67 H10        10.6630    0.4240   10.1300 hc        1 M7U      0.039200
     68 H10A       11.7360   -0.4990    9.0090 hc        1 M7U      0.039200
     69 H11        12.1950    2.4160    9.9540 hc        1 M7U      0.036700
     70 H11A       13.2670    1.4920    8.8330 hc        1 M7U      0.036700
     71 H12        12.5630    0.6760   11.7380 hc        1 M7U      0.041700
     72 H12A       13.6330   -0.2490   10.6160 hc        1 M7U      0.041700
     73 H13        15.1750    1.7380   10.4400 hc        1 M7U      0.047200
     74 H13A       14.1040    2.6690   11.5530 hc        1 M7U      0.047200
     75 H14        14.4920    0.9920   13.3740 hc        1 M7U      0.086200
     76 H14A       15.4930   -0.0270   12.2560 hc        1 M7U      0.086200
     77 H16        18.5990    2.6120   13.7360 h1        1 M7U      0.041700
     78 H17        20.1020    0.8280   13.7560 h1        1 M7U      0.114700
     79 H17A       19.3000    0.0340   15.2270 h1        1 M7U      0.114700
     80 H19        18.3490   -1.7250   15.6880 hc        1 M7U      0.159200
     81 H19A       16.9880   -0.5750   15.5220 hc        1 M7U      0.159200
     82 H20        16.9390   -3.6600   15.1250 hc        1 M7U      0.019200
     83 H20A       15.5840   -2.6110   14.5660 hc        1 M7U      0.019200
     84 H21        15.3810   -1.6700   16.9150 hc        1 M7U      0.020700
     85 H21A       15.0060   -3.4340   16.7600 hc        1 M7U      0.020700
     86 H22        17.6720   -2.1910   17.7560 hc        1 M7U      0.076700
     87 H22A       17.3550   -3.9650   17.5620 hc        1 M7U      0.076700
     88 H23        15.6010   -2.0930   19.2850 hc        1 M7U      0.016700
     89 H23A       15.5120   -3.8930   19.1970 hc        1 M7U      0.016700
     90 H24        16.9080   -3.9240   20.9890 hc        1 M7U      0.015200
     91 H24A       18.2280   -3.4560   19.8500 hc        1 M7U      0.015200
     92 H25        16.4210   -1.4610   21.3720 hc        1 M7U      0.093200
     93 H25A       17.8100   -1.0270   20.2820 hc        1 M7U      0.093200
     94 H26        18.0060   -2.8130   22.8280 hc        1 M7U      0.014700
     95 H26A       19.3790   -2.2650   21.7860 hc        1 M7U      0.014700
     96 H27        17.4480   -0.2580   23.1050 hc        1 M7U      0.035700
     97 H28        19.0070    0.4600   21.2080 hc        1 M7U      0.061367
     98 H28A       19.3090    1.3000   22.7980 hc        1 M7U      0.061367
     99 H28B       20.4130   -0.0290   22.2550 hc        1 M7U      0.061367
    100 H29        18.4400   -1.8840   24.8080 hc        1 M7U      0.022700
    101 H29A       20.0860   -1.3510   24.2900 hc        1 M7U      0.022700
    102 H30        17.8610    0.5170   25.3650 hc        1 M7U      0.043200
    103 H30A       19.5440    1.0010   24.9270 hc        1 M7U      0.043200
    104 H31        20.4480   -0.5870   26.6660 hc        1 M7U      0.031200
    105 H31A       18.7630   -1.0560   27.1110 hc        1 M7U      0.031200
    106 H32        19.9390    1.8060   27.2560 hc        1 M7U      0.039700
    107 H32A       18.2520    1.3400   27.6980 hc        1 M7U      0.039700
    108 H33        20.8330    0.2250   29.0010 hc        1 M7U      0.035200
    109 H33A       19.1470   -0.2410   29.4440 hc        1 M7U      0.035200
    110 H34        18.6400    2.1560   30.0310 hc        1 M7U      0.039200
    111 H34A       20.3260    2.6200   29.5880 hc        1 M7U      0.039200
    112 H35        19.5330    0.5750   31.7740 hc        1 M7U      0.035700
    113 H35A       21.2190    1.0390   31.3310 hc        1 M7U      0.035700
    114 H36        19.0360    2.9640   32.3960 hc        1 M7U      0.028033
    115 H36A       20.7270    3.4290   31.9520 hc        1 M7U      0.028033
    116 H36B       20.4340    2.2990   33.3380 hc        1 M7U      0.028033
    117 H37        19.2640    2.7160   16.0600 h1        1 M7U      0.020700
    118 H37A       17.4570    3.0850   15.9220 h1        1 M7U      0.020700
    119 O2         18.5600   -0.3570   13.2460 os        1 M7U     -0.440900
    120 O4         17.9480    1.2990   16.7820 os        1 M7U     -0.565200
@<TRIPOS>BOND
     1    1    4 1   
     2    1   46 1   
     3    1   47 1   
     4    1   48 1   
     5    2   23 2   
     6    3   11 1   
     7    3   13 1   
     8    3   15 1   
     9    3  120 1   
    10    4    6 1   
    11    4   49 1   
    12    4   50 1   
    13    5   23 1   
    14    5   24 1   
    15    6    7 1   
    16    6   51 1   
    17    6   52 1   
    18    7    9 1   
    19    7   53 1   
    20    7   54 1   
    21    8   26 2   
    22    9   10 1   
    23    9   55 1   
    24    9   56 1   
    25   10   12 1   
    26   10   57 1   
    27   10   58 1   
    28   12   14 1   
    29   12   59 1   
    30   12   60 1   
    31   14   16 1   
    32   14   61 1   
    33   14   62 1   
    34   16   17 1   
    35   16   63 1   
    36   16   64 1   
    37   17   18 1   
    38   17   65 1   
    39   17   66 1   
    40   18   19 1   
    41   18   67 1   
    42   18   68 1   
    43   19   20 1   
    44   19   69 1   
    45   19   70 1   
    46   20   21 1   
    47   20   71 1   
    48   20   72 1   
    49   21   22 1   
    50   21   73 1   
    51   21   74 1   
    52   22   23 1   
    53   22   75 1   
    54   22   76 1   
    55   24   25 1   
    56   24   45 1   
    57   24   77 1   
    58   25   78 1   
    59   25   79 1   
    60   25  119 1   
    61   26   27 1   
    62   26  119 1   
    63   27   28 1   
    64   27   80 1   
    65   27   81 1   
    66   28   29 1   
    67   28   82 1   
    68   28   83 1   
    69   29   30 1   
    70   29   84 1   
    71   29   85 1   
    72   30   31 1   
    73   30   86 1   
    74   30   87 1   
    75   31   32 1   
    76   31   88 1   
    77   31   89 1   
    78   32   33 1   
    79   32   90 1   
    80   32   91 1   
    81   33   34 1   
    82   33   92 1   
    83   33   93 1   
    84   34   35 1   
    85   34   94 1   
    86   34   95 1   
    87   35   36 1   
    88   35   37 1   
    89   35   96 1   
    90   36   97 1   
    91   36   98 1   
    92   36   99 1   
    93   37   38 1   
    94   37  100 1   
    95   37  101 1   
    96   38   39 1   
    97   38  102 1   
    98   38  103 1   
    99   39   40 1   
   100   39  104 1   
   101   39  105 1   
   102   40   41 1   
   103   40  106 1   
   104   40  107 1   
   105   41   42 1   
   106   41  108 1   
   107   41  109 1   
   108   42   43 1   
   109   42  110 1   
   110   42  111 1   
   111   43   44 1   
   112   43  112 1   
   113   43  113 1   
   114   44  114 1   
   115   44  115 1   
   116   44  116 1   
   117   45  117 1   
   118   45  118 1   
   119   45  120 1   
@<TRIPOS>SUBSTRUCTURE
     1 M7U         1 TEMP              0 ****  ****    0 ROOT
