@<TRIPOS>MOLECULE
M80
   58    60     1     0     0
SMALL
bcc


@<TRIPOS>ATOM
      1 C1B          0.0000     0.0000     0.0000 c          1 M80       0.979600
      2 O1B          1.2080     0.0000     0.0000 o          1 M80      -0.902300
      3 C2B         -0.7540     0.0000     1.3050 c3         1 M80      -0.129400
      4 C3B          0.2410     0.0020     2.4680 c3         1 M80       0.028900
      5 CB1         -0.5120     0.0040     3.7730 ca         1 M80      -0.053300
      6 CB6         -0.8560    -1.1940     4.3720 ca         1 M80      -0.090500
      7 CB5         -1.5470    -1.1970     5.5680 ca         1 M80      -0.113000
      8 CB2         -0.8530     1.2030     4.3720 ca         1 M80      -0.090500
      9 CB3         -1.5440     1.2060     5.5690 ca         1 M80      -0.113000
     10 CB4         -1.8960     0.0050     6.1690 ca         1 M80      -0.144400
     11 NB4         -2.5950     0.0060     7.3810 ns         1 M80      -0.003100
     12 C4B         -2.3770    -0.9680     8.2860 c          1 M80       0.540100
     13 O4B         -1.5070    -1.7920     8.0930 o          1 M80      -0.640100
     14 CW          -3.2140    -1.0350     9.5370 c3         1 M80      -0.046300
     15 CW1         -3.0410     0.2560    10.3370 c3         1 M80       0.016900
     16 CW2         -3.9690     0.2420    11.5240 ca         1 M80      -0.075300
     17 CW3         -3.5440    -0.2870    12.7280 ca         1 M80      -0.088000
     18 CW4         -4.3950    -0.3020    13.8170 ca         1 M80      -0.093500
     19 CW5         -5.6730     0.2150    13.7020 ca         1 M80      -0.101000
     20 CW6         -6.0970     0.7450    12.4970 ca         1 M80      -0.093500
     21 CW7         -5.2440     0.7630    11.4100 ca         1 M80      -0.088000
     22 NW          -2.7840    -2.1750    10.3520 ns         1 M80      -0.148900
     23 CY          -3.6440    -2.7480    11.2170 c          1 M80       0.673100
     24 OY1         -4.7760    -2.3180    11.3230 o          1 M80      -0.665000
     25 OY2         -3.2490    -3.7950    11.9660 os         1 M80      -0.417900
     26 CZ          -4.2280    -4.3610    12.8770 c3         1 M80       0.298700
     27 CZ1         -3.6110    -5.5150    13.6230 ca         1 M80      -0.114300
     28 CZ2         -2.9630    -5.2930    14.8240 ca         1 M80      -0.074000
     29 CZ3         -2.3960    -6.3520    15.5100 ca         1 M80      -0.108000
     30 CZ4         -2.4780    -7.6320    14.9950 ca         1 M80      -0.095000
     31 CZ5         -3.1270    -7.8540    13.7940 ca         1 M80      -0.108000
     32 CZ6         -3.6960    -6.7960    13.1110 ca         1 M80      -0.074000
     33 OXT         -0.6720     0.0030    -1.1630 o          1 M80      -0.902300
     34 H2B1        -1.3750    -0.8850     1.3630 hc         1 M80       0.007200
     35 H2B2        -1.3780     0.8840     1.3610 hc         1 M80       0.007200
     36 H3B1         0.8630     0.8870     2.4090 hc         1 M80       0.028700
     37 H3B2         0.8640    -0.8820     2.4120 hc         1 M80       0.028700
     38 HB6         -0.5840    -2.1320     3.9020 ha         1 M80       0.113000
     39 HB2         -0.5780     2.1400     3.9030 ha         1 M80       0.113000
     40 HB5         -1.8180    -2.1360     6.0350 ha         1 M80       0.110000
     41 HB3         -1.8130     2.1460     6.0370 ha         1 M80       0.110000
     42 HB4         -3.2840     0.7090     7.5600 hn         1 M80       0.161500
     43 HW          -4.2570    -1.1570     9.2690 h1         1 M80       0.070700
     44 HW11        -2.0160     0.3330    10.6810 hc         1 M80       0.025700
     45 HW12        -3.2740     1.1060     9.7060 hc         1 M80       0.025700
     46 HA          -1.8620    -2.5500    10.2410 hn         1 M80       0.201500
     47 HW3         -2.5430    -0.6920    12.8180 ha         1 M80       0.100500
     48 HW7         -5.5770     1.1790    10.4670 ha         1 M80       0.100500
     49 HW4         -4.0620    -0.7170    14.7600 ha         1 M80       0.096000
     50 HW5         -6.3410     0.2030    14.5540 ha         1 M80       0.095000
     51 HW6         -7.0970     1.1520    12.4070 ha         1 M80       0.096000
     52 HZ1C        -5.0850    -4.7120    12.3140 h1         1 M80       0.014200
     53 HZ2C        -4.5460    -3.6030    13.5820 h1         1 M80       0.014200
     54 HZ2         -2.8990    -4.2900    15.2280 ha         1 M80       0.106500
     55 HZ6         -4.2040    -6.9700    12.1700 ha         1 M80       0.106500
     56 HZ3         -1.8880    -6.1780    16.4510 ha         1 M80       0.102000
     57 HZ4         -2.0330    -8.4610    15.5310 ha         1 M80       0.099000
     58 HZ5         -3.1920    -8.8570    13.3900 ha         1 M80       0.102000
@<TRIPOS>BOND
     1     1     2 1   
     2     1     3 1   
     3     1    33 1   
     4     3     4 1   
     5     3    34 1   
     6     3    35 1   
     7     4     5 1   
     8     4    36 1   
     9     4    37 1   
    10     5     6 ar  
    11     5     8 ar  
    12     6     7 ar  
    13     6    38 1   
    14     7    10 ar  
    15     7    40 1   
    16     8     9 ar  
    17     8    39 1   
    18     9    10 ar  
    19     9    41 1   
    20    10    11 1   
    21    11    12 1   
    22    11    42 1   
    23    12    13 2   
    24    12    14 1   
    25    14    15 1   
    26    14    22 1   
    27    14    43 1   
    28    15    16 1   
    29    15    44 1   
    30    15    45 1   
    31    16    17 ar  
    32    16    21 ar  
    33    17    18 ar  
    34    17    47 1   
    35    18    19 ar  
    36    18    49 1   
    37    19    20 ar  
    38    19    50 1   
    39    20    21 ar  
    40    20    51 1   
    41    21    48 1   
    42    22    23 1   
    43    22    46 1   
    44    23    24 2   
    45    23    25 1   
    46    25    26 1   
    47    26    27 1   
    48    26    52 1   
    49    26    53 1   
    50    27    28 ar  
    51    27    32 ar  
    52    28    29 ar  
    53    28    54 1   
    54    29    30 ar  
    55    29    56 1   
    56    30    31 ar  
    57    30    57 1   
    58    31    32 ar  
    59    31    58 1   
    60    32    55 1   
@<TRIPOS>SUBSTRUCTURE
     1 M80         1 TEMP              0 ****  ****    0 ROOT
