@<TRIPOS>MOLECULE
molecule
   58    60     1     0     0
SMALL
bcc


@<TRIPOS>ATOM
      1 C1B          0.0000     0.0000     0.0000 c          1 M80       0.890600
      2 O1B          1.2080     0.0000     0.0000 o          1 M80      -0.852800
      3 C2B         -0.7540     0.0000     1.3050 c3         1 M80      -0.178400
      4 C3B          0.2410     0.0020     2.4680 c3         1 M80      -0.029100
      5 CB1         -0.5120     0.0040     3.7730 ca         1 M80      -0.057300
      6 CB6         -0.8560    -1.1940     4.3720 ca         1 M80      -0.118500
      7 CB5         -1.5470    -1.1970     5.5680 ca         1 M80      -0.141500
      8 CB2         -0.8530     1.2030     4.3720 ca         1 M80      -0.118500
      9 CB3         -1.5440     1.2060     5.5690 ca         1 M80      -0.141500
     10 CB4         -1.8960     0.0050     6.1690 ca         1 M80       0.010600
     11 NB4         -2.5950     0.0060     7.3810 ns         1 M80      -0.463100
     12 C4B         -2.3770    -0.9680     8.2860 c          1 M80       0.645100
     13 O4B         -1.5070    -1.7920     8.0930 o          1 M80      -0.594100
     14 CW          -3.2140    -1.0350     9.5370 c3         1 M80       0.064700
     15 CW1         -3.0410     0.2560    10.3370 c3         1 M80      -0.050100
     16 CW2         -3.9690     0.2420    11.5240 ca         1 M80      -0.066300
     17 CW3         -3.5440    -0.2870    12.7280 ca         1 M80      -0.113000
     18 CW4         -4.3950    -0.3020    13.8170 ca         1 M80      -0.122000
     19 CW5         -5.6730     0.2150    13.7020 ca         1 M80      -0.127000
     20 CW6         -6.0970     0.7450    12.4970 ca         1 M80      -0.122000
     21 CW7         -5.2440     0.7630    11.4100 ca         1 M80      -0.113000
     22 NW          -2.7840    -2.1750    10.3520 ns         1 M80      -0.555900
     23 CY          -3.6440    -2.7480    11.2170 c          1 M80       0.749100
     24 OY1         -4.7760    -2.3180    11.3230 o          1 M80      -0.613000
     25 OY2         -3.2490    -3.7950    11.9660 os         1 M80      -0.434900
     26 CZ          -4.2280    -4.3610    12.8770 c3         1 M80       0.215700
     27 CZ1         -3.6110    -5.5150    13.6230 ca         1 M80      -0.096300
     28 CZ2         -2.9630    -5.2930    14.8240 ca         1 M80      -0.101500
     29 CZ3         -2.3960    -6.3520    15.5100 ca         1 M80      -0.134000
     30 CZ4         -2.4780    -7.6320    14.9950 ca         1 M80      -0.120000
     31 CZ5         -3.1270    -7.8540    13.7940 ca         1 M80      -0.134000
     32 CZ6         -3.6960    -6.7960    13.1110 ca         1 M80      -0.101500
     33 OXT         -0.6720     0.0030    -1.1630 o          1 M80      -0.852800
     34 H2B1        -1.3750    -0.8850     1.3630 hc         1 M80       0.032200
     35 H2B2        -1.3780     0.8840     1.3610 hc         1 M80       0.032200
     36 H3B1         0.8630     0.8870     2.4090 hc         1 M80       0.056700
     37 H3B2         0.8640    -0.8820     2.4120 hc         1 M80       0.056700
     38 HB6         -0.5840    -2.1320     3.9020 ha         1 M80       0.138500
     39 HB2         -0.5780     2.1400     3.9030 ha         1 M80       0.138500
     40 HB5         -1.8180    -2.1360     6.0350 ha         1 M80       0.130000
     41 HB3         -1.8130     2.1460     6.0370 ha         1 M80       0.130000
     42 HB4         -3.2840     0.7090     7.5600 hn         1 M80       0.317500
     43 HW          -4.2570    -1.1570     9.2690 h1         1 M80       0.097700
     44 HW11        -2.0160     0.3330    10.6810 hc         1 M80       0.058200
     45 HW12        -3.2740     1.1060     9.7060 hc         1 M80       0.058200
     46 HA          -1.8620    -2.5500    10.2410 hn         1 M80       0.347500
     47 HW3         -2.5430    -0.6920    12.8180 ha         1 M80       0.125500
     48 HW7         -5.5770     1.1790    10.4670 ha         1 M80       0.125500
     49 HW4         -4.0620    -0.7170    14.7600 ha         1 M80       0.122000
     50 HW5         -6.3410     0.2030    14.5540 ha         1 M80       0.121000
     51 HW6         -7.0970     1.1520    12.4070 ha         1 M80       0.122000
     52 HZ1C        -5.0850    -4.7120    12.3140 h1         1 M80       0.056200
     53 HZ2C        -4.5460    -3.6030    13.5820 h1         1 M80       0.056200
     54 HZ2         -2.8990    -4.2900    15.2280 ha         1 M80       0.134500
     55 HZ6         -4.2040    -6.9700    12.1700 ha         1 M80       0.134500
     56 HZ3         -1.8880    -6.1780    16.4510 ha         1 M80       0.130000
     57 HZ4         -2.0330    -8.4610    15.5310 ha         1 M80       0.127000
     58 HZ5         -3.1920    -8.8570    13.3900 ha         1 M80       0.130000
@<TRIPOS>BOND
     1     1     2 1
     2     1     3 1
     3     1    33 1
     4     3     4 1
     5     4     5 1
     6     5     6 ar
     7     5     8 ar
     8     6     7 ar
     9     7    10 ar
    10     8     9 ar
    11     9    10 ar
    12    10    11 1
    13    11    12 1
    14    12    13 2
    15    12    14 1
    16    14    15 1
    17    14    22 1
    18    15    16 1
    19    16    17 ar
    20    16    21 ar
    21    17    18 ar
    22    18    19 ar
    23    19    20 ar
    24    20    21 ar
    25    22    23 1
    26    23    24 2
    27    23    25 1
    28    25    26 1
    29    26    27 1
    30    27    28 ar
    31    27    32 ar
    32    28    29 ar
    33    29    30 ar
    34    30    31 ar
    35    31    32 ar
    36     3    34 1
    37     3    35 1
    38     4    36 1
    39     4    37 1
    40     6    38 1
    41     8    39 1
    42     7    40 1
    43     9    41 1
    44    11    42 1
    45    14    43 1
    46    15    44 1
    47    15    45 1
    48    22    46 1
    49    17    47 1
    50    21    48 1
    51    18    49 1
    52    19    50 1
    53    20    51 1
    54    26    52 1
    55    26    53 1
    56    28    54 1
    57    32    55 1
    58    29    56 1
    59    30    57 1
    60    31    58 1
@<TRIPOS>SUBSTRUCTURE
     1 M80         1 TEMP              0 ****  ****    0 ROOT
