@<TRIPOS>MOLECULE
M81
   26    27     1     0     0
SMALL
bcc


@<TRIPOS>ATOM
      1 CL          0.2680   -1.2330    0.3140 cl        1 M81     -0.133400
      2 C3          1.8190   -0.5250    0.1730 ca        1 M81      0.030400
      3 C2          2.6300   -0.5320    1.3160 ca        1 M81     -0.157000
      4 C1          3.9070    0.0160    1.2610 ca        1 M81     -0.149000
      5 C4          2.2740    0.0300   -1.0280 ca        1 M81     -0.055300
      6 C5          3.5730    0.5660   -1.0680 ca        1 M81     -0.083000
      7 C           4.3790    0.5620    0.0650 ca        1 M81     -0.149000
      8 C6          1.4680    0.0510   -2.3030 c3        1 M81      0.096600
      9 N           1.1550    1.3680   -2.8000 na        1 M81      0.056400
     10 N1          0.1680    2.1350   -2.2740 nc        1 M81     -0.551800
     11 C9          0.1960    3.3210   -2.9270 cd        1 M81      0.292800
     12 C10        -0.7590    4.4730   -2.6860 c         1 M81      0.837100
     13 O1         -0.3610    5.4420   -1.9770 o         1 M81     -0.847300
     14 O          -1.9030    4.4280   -3.2210 o         1 M81     -0.847300
     15 C8          1.2730    3.3140   -3.9060 cd        1 M81     -0.282300
     16 C7          1.8830    2.0590   -3.7970 cc        1 M81     -0.152900
     17 C11         3.0550    1.5200   -4.5720 c         1 M81      0.931200
     18 O2          3.3810    2.0990   -5.6460 o         1 M81     -0.851300
     19 O3          3.6950    0.5140   -4.1250 o         1 M81     -0.851300
     20 H2          2.2540   -0.9610    2.2550 ha        1 M81      0.116000
     21 H1          4.5400    0.0200    2.1580 ha        1 M81      0.104000
     22 H           5.3880    0.9940    0.0180 ha        1 M81      0.118000
     23 H5          3.9350    0.9700   -2.0390 ha        1 M81      0.214000
     24 H61C        0.5070   -0.5170   -2.1520 h1        1 M81      0.080200
     25 H62C        2.0900   -0.4630   -3.1000 h1        1 M81      0.080200
     26 H8          1.5360    4.1130   -4.5860 ha        1 M81      0.153000
@<TRIPOS>BOND
     1    1    2 1   
     2    2    3 ar  
     3    2    5 ar  
     4    3    4 ar  
     5    3   20 1   
     6    4    7 ar  
     7    4   21 1   
     8    5    6 ar  
     9    5    8 1   
    10    6    7 ar  
    11    6   23 1   
    12    7   22 1   
    13    8    9 1   
    14    8   24 1   
    15    8   25 1   
    16    9   10 1   
    17    9   16 1   
    18   10   11 2   
    19   11   12 1   
    20   11   15 1   
    21   12   13 1   
    22   12   14 1   
    23   15   16 2   
    24   15   26 1   
    25   16   17 1   
    26   17   18 1   
    27   17   19 1   
@<TRIPOS>SUBSTRUCTURE
     1 M81         1 TEMP              0 ****  ****    0 ROOT
