@<TRIPOS>MOLECULE
molecule
   26    27     1     0     0
SMALL
bcc


@<TRIPOS>ATOM
      1 Cl           0.0000     0.0000     0.0000 cl         1 M81      -0.083400
      2 C3           1.7360     0.0000     0.0000 ca         1 M81       0.047400
      3 C2           2.4290     0.0000     1.1970 ca         1 M81      -0.154000
      4 C1           3.8110    -0.0000     1.1960 ca         1 M81      -0.144000
      5 C4           2.4280    -0.0060    -1.1990 ca         1 M81      -0.075300
      6 C5           3.8100    -0.0070    -1.1980 ca         1 M81      -0.081000
      7 C            4.5020    -0.0000    -0.0010 ca         1 M81      -0.159000
      8 C6           1.6740    -0.0130    -2.5030 c3         1 M81       0.105600
      9 N            1.2440     1.3500    -2.8270 na         1 M81       0.127400
     10 N1           0.1710     1.9070    -2.3930 nc         1 M81      -0.532800
     11 C9           0.0660     3.1360    -2.8620 cd         1 M81       0.268800
     12 C10         -1.0290     4.0860    -2.5850 c          1 M81       0.820100
     13 O1          -1.0100     5.1960    -3.0800 o          1 M81      -0.859300
     14 O           -2.0490     3.7230    -1.7830 o          1 M81      -0.859300
     15 C8           1.1910     3.3750    -3.6770 cd         1 M81      -0.268300
     16 C7           1.9280     2.2200    -3.6310 cc         1 M81      -0.197900
     17 C11          3.2040     1.9650    -4.3150 c          1 M81       0.923200
     18 O2           3.7590     2.8600    -4.9220 o          1 M81      -0.866800
     19 O3           3.7590     0.7370    -4.2700 o          1 M81      -0.866800
     20 H2           1.8880     0.0000     2.1360 ha         1 M81       0.119000
     21 H1           4.3530     0.0020     2.1340 ha         1 M81       0.102000
     22 H            5.5850    -0.0010    -0.0020 ha         1 M81       0.112000
     23 H5           4.3520    -0.0090    -2.1370 ha         1 M81       0.194000
     24 H61C         2.3190    -0.3850    -3.2900 h1         1 M81       0.083700
     25 H62C         0.8050    -0.6540    -2.4150 h1         1 M81       0.083700
     26 H8           1.4270     4.2830    -4.2200 ha         1 M81       0.159000
@<TRIPOS>BOND
     1     1     2 1
     2     2     3 ar
     3     2     5 ar
     4     3     4 ar
     5     4     7 ar
     6     5     6 ar
     7     5     8 1
     8     6     7 ar
     9     8     9 1
    10     9    10 1
    11     9    16 1
    12    10    11 2
    13    11    12 1
    14    11    15 1
    15    12    13 1
    16    12    14 1
    17    15    16 2
    18    16    17 1
    19    17    18 1
    20    17    19 1
    21     3    20 1
    22     4    21 1
    23     7    22 1
    24     6    23 1
    25     8    24 1
    26     8    25 1
    27    15    26 1
@<TRIPOS>SUBSTRUCTURE
     1 M81         1 TEMP              0 ****  ****    0 ROOT
