@<TRIPOS>MOLECULE
molecule
   34    35     1     0     0
SMALL
bcc


@<TRIPOS>ATOM
      1 O4B          0.0000     0.0000     0.0000 o          1 M84      -0.594100
      2 C4B          1.2160     0.0000     0.0000 c          1 M84       0.666700
      3 CW2          1.9550     0.0000     1.2800 ca         1 M84      -0.139600
      4 CW3          1.2600    -0.0000     2.4910 ca         1 M84      -0.086500
      5 CW4          1.9570    -0.0020     3.6810 ca         1 M84      -0.141000
      6 CW5          3.3400    -0.0010     3.6780 ca         1 M84      -0.113000
      7 CW6          4.0340    -0.0000     2.4810 ca         1 M84      -0.141000
      8 CW7          3.3510    -0.0050     1.2830 ca         1 M84      -0.086500
      9 NB4          1.8890    -0.0050    -1.1680 ns         1 M84      -0.466100
     10 CB4          1.1940    -0.1210    -2.3750 ca         1 M84       0.017600
     11 CB3          1.6650     0.5190    -3.5140 ca         1 M84      -0.145000
     12 CB2          0.9760     0.4020    -4.7050 ca         1 M84      -0.118000
     13 CB5          0.0360    -0.8840    -2.4400 ca         1 M84      -0.145000
     14 CB6         -0.6490    -0.9980    -3.6350 ca         1 M84      -0.118000
     15 CB1         -0.1810    -0.3540    -4.7640 ca         1 M84      -0.062300
     16 C3B         -0.9300    -0.4800    -6.0660 c3         1 M84      -0.028100
     17 C2B         -0.4050    -1.6880    -6.8430 c3         1 M84      -0.178400
     18 C1B         -1.1540    -1.8140    -8.1440 c          1 M84       0.890600
     19 O1B         -2.0200    -1.0190    -8.4220 o          1 M84      -0.854300
     20 OXT         -0.8600    -2.8110    -8.9940 o          1 M84      -0.854300
     21 HB4          2.8860     0.0880    -1.1710 hn         1 M84       0.316500
     22 HW3          0.1770    -0.0010     2.4960 ha         1 M84       0.143000
     23 HW7          3.8960    -0.0040     0.3470 ha         1 M84       0.143000
     24 HW4          1.4190    -0.0020     4.6220 ha         1 M84       0.130000
     25 HW5          3.8820     0.0000     4.6160 ha         1 M84       0.126000
     26 HW6          5.1180    -0.0020     2.4850 ha         1 M84       0.130000
     27 HB3          2.5700     1.1120    -3.4670 ha         1 M84       0.129500
     28 HB5         -0.3320    -1.3890    -1.5550 ha         1 M84       0.129500
     29 HB2          1.3410     0.9040    -5.5930 ha         1 M84       0.137500
     30 HB6         -1.5540    -1.5910    -3.6860 ha         1 M84       0.137500
     31 H3B1        -1.9860    -0.6120    -5.8640 hc         1 M84       0.056200
     32 H3B2        -0.7850     0.4180    -6.6540 hc         1 M84       0.056200
     33 H2B1        -0.5500    -2.5860    -6.2550 hc         1 M84       0.031700
     34 H2B2         0.6510    -1.5560    -7.0450 hc         1 M84       0.031700
@<TRIPOS>BOND
     1     1     2 2
     2     2     3 1
     3     2     9 1
     4     3     4 ar
     5     3     8 ar
     6     4     5 ar
     7     5     6 ar
     8     6     7 ar
     9     7     8 ar
    10     9    10 1
    11    10    11 ar
    12    10    13 ar
    13    11    12 ar
    14    12    15 ar
    15    13    14 ar
    16    14    15 ar
    17    15    16 1
    18    16    17 1
    19    17    18 1
    20    18    19 1
    21    18    20 1
    22     9    21 1
    23     4    22 1
    24     8    23 1
    25     5    24 1
    26     6    25 1
    27     7    26 1
    28    11    27 1
    29    13    28 1
    30    12    29 1
    31    14    30 1
    32    16    31 1
    33    16    32 1
    34    17    33 1
    35    17    34 1
@<TRIPOS>SUBSTRUCTURE
     1 M84         1 TEMP              0 ****  ****    0 ROOT
