@<TRIPOS>MOLECULE
molecule
   41    43     1     0     0
SMALL
bcc


@<TRIPOS>ATOM
      1 N01          0.0000     0.0000     0.0000 nb         1 M85      -0.702000
      2 C02          1.3180     0.0000     0.0000 ca         1 M85       0.688200
      3 N02          1.9950     0.0000    -1.2110 nv         1 M85      -1.085500
      4 C03          2.0510     0.0000     1.1950 ca         1 M85      -0.252300
      5 C04          1.4000    -0.0000     2.3910 ca         1 M85      -0.081000
      6 C05         -0.0100    -0.0020     2.3840 ca         1 M85      -0.156300
      7 C06         -0.7450    -0.0010     3.5800 ca         1 M85      -0.111000
      8 C07         -2.1060    -0.0010     3.5340 ca         1 M85      -0.111000
      9 C08         -2.7800    -0.0020     2.3160 ca         1 M85      -0.085300
     10 C09         -2.0990    -0.0020     1.1370 ca         1 M85      -0.138300
     11 C10         -0.6930    -0.0010     1.1440 ca         1 M85       0.426600
     12 C11         -4.2870    -0.0020     2.3020 c3         1 M85       0.186700
     13 O12         -4.7640     1.3450     2.2980 os         1 M85      -0.325900
     14 C21         -8.0120     2.9820     2.2680 ca         1 M85      -0.051300
     15 C22         -8.8530     1.8850     2.2600 ca         1 M85      -0.144000
     16 C23         -8.3260     0.6070     2.2650 ca         1 M85      -0.091000
     17 C24         -6.9570     0.4240     2.2770 ca         1 M85      -0.222000
     18 C25         -6.1110     1.5230     2.2850 ca         1 M85       0.141100
     19 C26         -6.6420     2.8050     2.2800 ca         1 M85      -0.156000
     20 N28         -8.7970     4.8300     3.6380 n7         1 M85      -0.822200
     21 C29         -9.3610     6.1860     3.6660 c3         1 M85       0.148100
     22 HN02         2.2260     0.8670    -1.6540 hn         1 M85       0.436800
     23 HN0A         2.2260    -0.8660    -1.6550 hn         1 M85       0.436800
     24 H03          3.1340    -0.0000     1.1660 ha         1 M85       0.143000
     25 H04          1.9510    -0.0000     3.3240 ha         1 M85       0.140000
     26 H06         -0.2320    -0.0010     4.5340 ha         1 M85       0.135000
     27 H07         -2.6720    -0.0020     4.4580 ha         1 M85       0.135000
     28 H09         -2.6380    -0.0020     0.1970 ha         1 M85       0.154000
     29 H11         -4.6390    -0.5130     1.4150 h1         1 M85       0.043200
     30 H11A        -4.6550    -0.5130     3.1840 h1         1 M85       0.043200
     31 H22         -9.9270     2.0270     2.2500 ha         1 M85       0.136000
     32 H23         -8.9870    -0.2520     2.2590 ha         1 M85       0.131000
     33 H24         -6.5440    -0.5780     2.2810 ha         1 M85       0.133000
     34 H26         -5.9840     3.6650     2.2860 ha         1 M85       0.142000
     35 H27         -9.5390     4.3660     1.7330 h1         1 M85       0.039200
     36 H27A        -7.9060     5.0450     1.7530 h1         1 M85       0.039200
     37 HN28        -7.9370     4.8150     4.1490 hn         1 M85       0.359800
     38 H29         -9.5350     6.4840     4.6930 h1         1 M85       0.030367
     39 H29A        -8.6650     6.8760     3.2030 h1         1 M85       0.030367
     40 H29B       -10.2980     6.1990     3.1230 h1         1 M85       0.030367
     41 C27         -8.5910     4.3740     2.2560 c3         1 M85       0.207100
@<TRIPOS>BOND
     1     1     2 ar
     2     1    11 ar
     3     2     3 1
     4     2     4 ar
     5     4     5 ar
     6     5     6 ar
     7     6     7 ar
     8     6    11 ar
     9     7     8 ar
    10     8     9 ar
    11     9    10 ar
    12     9    12 1
    13    10    11 ar
    14    12    13 1
    15    13    18 1
    16    14    15 ar
    17    14    19 ar
    18    14    41 1
    19    15    16 ar
    20    16    17 ar
    21    17    18 ar
    22    18    19 ar
    23    41    20 1
    24    20    21 1
    25     3    22 1
    26     3    23 1
    27     4    24 1
    28     5    25 1
    29     7    26 1
    30     8    27 1
    31    10    28 1
    32    12    29 1
    33    12    30 1
    34    15    31 1
    35    16    32 1
    36    17    33 1
    37    19    34 1
    38    41    35 1
    39    41    36 1
    40    20    37 1
    41    21    38 1
    42    21    39 1
    43    21    40 1
@<TRIPOS>SUBSTRUCTURE
     1 M85         1 TEMP              0 ****  ****    0 ROOT
