@<TRIPOS>MOLECULE
M86
   80    82     1     0     0
SMALL
bcc


@<TRIPOS>ATOM
      1 O10          0.0000     0.0000     0.0000 o          1 M86      -0.588300
      2 S8           1.4200     0.0000     0.0000 sy         1 M86       1.050200
      3 O9           2.1980     0.0000     1.1900 o          1 M86      -0.588300
      4 C5           1.9190    -1.4180    -0.9200 ca         1 M86      -0.209500
      5 C6           3.1680    -1.9730    -0.7100 ca         1 M86       0.042500
      6 C7           3.5600    -3.0850    -1.4300 ca         1 M86      -0.209500
      7 C4           1.0580    -1.9770    -1.8460 ca         1 M86       0.042500
      8 C3           1.4450    -3.0880    -2.5680 ca         1 M86      -0.209500
      9 C2           2.7000    -3.6440    -2.3640 ca         1 M86       0.202100
     10 O1           3.0840    -4.7380    -3.0730 os         1 M86      -0.302900
     11 C1           2.1480    -5.2600    -4.0180 c3         1 M86       0.245700
     12 N11          1.8880     1.3330    -0.8640 n3         1 M86      -0.517500
     13 C12          0.9790     1.9240    -1.8490 c3         1 M86       0.232800
     14 C13          0.1680     3.0420    -1.1910 c3         1 M86      -0.079700
     15 C14          1.1060     4.1800    -0.7830 c3         1 M86      -0.012100
     16 C15         -0.8720     3.5690    -2.1810 c3         1 M86      -0.020400
     17 C18         -1.7640     4.5970    -1.4840 c3         1 M86       0.002900
     18 C16          3.2110     1.9240    -0.6410 c3         1 M86       0.189800
     19 C17          4.2020     1.3470    -1.6540 c3         1 M86       0.144100
     20 O18          3.8250     1.7500    -2.9720 oh         1 M86      -0.582800
     21 C19          5.6080     1.8670    -1.3440 c3         1 M86       0.011700
     22 C32          5.6480     3.3830    -1.5550 c3         1 M86       0.009900
     23 C38          6.9950     3.9120    -1.1330 ca         1 M86      -0.075300
     24 C37          7.2000     4.3150     0.1740 ca         1 M86      -0.090000
     25 C36          8.4350     4.8010     0.5610 ca         1 M86      -0.094000
     26 C35          9.4650     4.8840    -0.3580 ca         1 M86      -0.100000
     27 C34          9.2590     4.4800    -1.6650 ca         1 M86      -0.094000
     28 C33          8.0250     3.9890    -2.0500 ca         1 M86      -0.090000
     29 N20          6.5750     1.2240    -2.2380 ns         1 M86      -0.168900
     30 C21          7.8640     1.1120    -1.8650 c          1 M86       0.675100
     31 O22          8.2250     1.5430    -0.7890 o          1 M86      -0.654000
     32 O23          8.7530     0.5210    -2.6860 os         1 M86      -0.401900
     33 C22         10.1250     0.4340    -2.2200 c3         1 M86       0.213400
     34 C23         10.9810    -0.2630    -3.2790 c3         1 M86       0.090000
     35 N24         11.0340     0.5650    -4.4870 n          1 M86      -0.197800
     36 C25         12.0390     1.6010    -4.7660 c3         1 M86       0.042000
     37 C28         10.1770     0.4950    -5.5140 c          1 M86       0.633500
     38 O29          9.2440    -0.2840    -5.5470 o          1 M86      -0.731500
     39 N27         10.4410     1.3610    -6.5010 ns         1 M86      -0.221900
     40 C26         11.6300     2.1490    -6.1470 c3         1 M86       0.024000
     41 H1           3.8390    -1.5360     0.0200 ha         1 M86       0.122500
     42 H2           4.5390    -3.5180    -1.2670 ha         1 M86       0.126000
     43 H3           0.0780    -1.5430    -2.0050 ha         1 M86       0.122500
     44 H4           0.7710    -3.5250    -3.2950 ha         1 M86       0.126000
     45 H5           2.5750    -6.1250    -4.5100 h1         1 M86       0.000033
     46 H6           1.9180    -4.5010    -4.7560 h1         1 M86       0.000033
     47 H7           1.2390    -5.5490    -3.5040 h1         1 M86       0.000033
     48 H8           0.3060     1.1610    -2.2210 h1         1 M86       0.027200
     49 H9           1.5530     2.3310    -2.6720 h1         1 M86       0.027200
     50 H10         -0.3340     2.6550    -0.3120 hc         1 M86       0.051700
     51 H11          1.6670     3.8870     0.0970 hc         1 M86       0.008700
     52 H12          1.7910     4.3910    -1.5940 hc         1 M86       0.008700
     53 H13          0.5230     5.0660    -0.5610 hc         1 M86       0.008700
     54 H14         -1.4800     2.7460    -2.5380 hc         1 M86       0.012200
     55 H15         -0.3690     4.0360    -3.0190 hc         1 M86       0.012200
     56 H16         -2.7460     4.5930    -1.9420 hc         1 M86       0.002367
     57 H17         -1.3240     5.5820    -1.5820 hc         1 M86       0.002367
     58 H18         -1.8550     4.3450    -0.4350 hc         1 M86       0.002367
     59 H19          3.1530     2.9980    -0.7640 h1         1 M86       0.055200
     60 H20          3.5450     1.6920     0.3630 h1         1 M86       0.055200
     61 H21          4.1950     0.2660    -1.5910 h1         1 M86       0.012700
     62 H22          3.8530     1.0050    -3.5490 ho         1 M86       0.392000
     63 H23          5.8590     1.6390    -0.3160 h1         1 M86       0.068700
     64 H24          4.8740     3.8510    -0.9590 hc         1 M86       0.032700
     65 H25          5.4840     3.6070    -2.6020 hc         1 M86       0.032700
     66 H26          6.3930     4.2500     0.8940 ha         1 M86       0.100500
     67 H27          8.5960     5.1170     1.5850 ha         1 M86       0.095000
     68 H28         10.4320     5.2660    -0.0560 ha         1 M86       0.096000
     69 H29         10.0660     4.5430    -2.3850 ha         1 M86       0.095000
     70 H30          7.8640     3.6730    -3.0740 ha         1 M86       0.100500
     71 H31          6.2700     0.8360    -3.1090 hn         1 M86       0.178500
     72 H32         10.1580    -0.1360    -1.2990 h1         1 M86       0.015700
     73 H33         10.5100     1.4300    -2.0420 h1         1 M86       0.015700
     74 H34         10.5450    -1.2250    -3.5200 h1         1 M86       0.035700
     75 H35         11.9840    -0.4060    -2.8960 h1         1 M86       0.035700
     76 H36         11.8780     2.3970    -4.0500 h1         1 M86       0.031700
     77 H37         12.9880     1.0940    -4.8950 h1         1 M86       0.031700
     78 H38          9.9130     1.4560    -7.3450 hn         1 M86       0.209500
     79 H39         11.3810     3.2010    -6.0790 h1         1 M86       0.017200
     80 H40         12.4220     1.9850    -6.8690 h1         1 M86       0.017200
@<TRIPOS>BOND
     1     1     2 2   
     2     2     3 2   
     3     2     4 1   
     4     2    12 1   
     5     4     5 ar  
     6     4     7 ar  
     7     5     6 ar  
     8     5    41 1   
     9     6     9 ar  
    10     6    42 1   
    11     7     8 ar  
    12     7    43 1   
    13     8     9 ar  
    14     8    44 1   
    15     9    10 1   
    16    10    11 1   
    17    11    45 1   
    18    11    46 1   
    19    11    47 1   
    20    12    13 1   
    21    12    18 1   
    22    13    14 1   
    23    13    48 1   
    24    13    49 1   
    25    14    15 1   
    26    14    16 1   
    27    14    50 1   
    28    15    51 1   
    29    15    52 1   
    30    15    53 1   
    31    16    17 1   
    32    16    54 1   
    33    16    55 1   
    34    17    56 1   
    35    17    57 1   
    36    17    58 1   
    37    18    19 1   
    38    18    59 1   
    39    18    60 1   
    40    19    20 1   
    41    19    21 1   
    42    19    61 1   
    43    20    62 1   
    44    21    22 1   
    45    21    29 1   
    46    21    63 1   
    47    22    23 1   
    48    22    64 1   
    49    22    65 1   
    50    23    24 ar  
    51    23    28 ar  
    52    24    25 ar  
    53    24    66 1   
    54    25    26 ar  
    55    25    67 1   
    56    26    27 ar  
    57    26    68 1   
    58    27    28 ar  
    59    27    69 1   
    60    28    70 1   
    61    29    30 1   
    62    29    71 1   
    63    30    31 2   
    64    30    32 1   
    65    32    33 1   
    66    33    34 1   
    67    33    72 1   
    68    33    73 1   
    69    34    35 1   
    70    34    74 1   
    71    34    75 1   
    72    35    36 1   
    73    35    37 1   
    74    36    40 1   
    75    36    76 1   
    76    36    77 1   
    77    37    38 2   
    78    37    39 1   
    79    39    40 1   
    80    39    78 1   
    81    40    79 1   
    82    40    80 1   
@<TRIPOS>SUBSTRUCTURE
     1 M86         1 TEMP              0 ****  ****    0 ROOT
