@<TRIPOS>MOLECULE
molecule
   40    42     1     0     0
SMALL
bcc


@<TRIPOS>ATOM
      1 F23          0.0000     0.0000     0.0000 f          1 M87      -0.141900
      2 C23          1.3510     0.0000     0.0000 ca         1 M87       0.134900
      3 C24          2.0450     0.0000     1.1990 ca         1 M87      -0.170000
      4 C25          3.4260    -0.0010     1.1980 ca         1 M87      -0.101000
      5 C26          4.1170    -0.0010     0.0000 ca         1 M87      -0.140000
      6 C22          2.0440    -0.0060    -1.1990 ca         1 M87      -0.166000
      7 C21          3.4270    -0.0010    -1.1970 ca         1 M87      -0.058300
      8 C14          4.1810    -0.0020    -2.5020 c3         1 M87      -0.037100
      9 C13          4.4360    -1.4440    -2.9430 c3         1 M87       0.159800
     10 N12          5.1710    -1.4440    -4.2150 n7         1 M87      -0.817200
     11 C11          5.4350    -2.8170    -4.6700 c3         1 M87       0.203100
     12 C08          6.1880    -2.7760    -5.9740 ca         1 M87      -0.074300
     13 C07          7.5810    -2.7580    -5.9610 ca         1 M87      -0.109000
     14 C06          8.2900    -2.7220    -7.1230 ca         1 M87      -0.111000
     15 C09          5.4980    -2.7640    -7.1480 ca         1 M87      -0.166300
     16 C10          6.1950    -2.7280    -8.3670 ca         1 M87       0.431600
     17 N01          5.5410    -2.7150    -9.5340 nb         1 M87      -0.706000
     18 C05          7.6110    -2.7030    -8.3510 ca         1 M87      -0.161300
     19 C04          8.3120    -2.6670    -9.5750 ca         1 M87      -0.079000
     20 C03          7.5900    -2.6500   -10.7300 ca         1 M87      -0.256300
     21 C02          6.1890    -2.6810   -10.6800 ca         1 M87       0.689200
     22 N02          5.4690    -2.6700   -11.8650 nv         1 M87      -1.085500
     23 H24          1.5040    -0.0000     2.1380 ha         1 M87       0.144000
     24 H22          1.5030    -0.0060    -2.1370 ha         1 M87       0.145000
     25 H25          3.9680    -0.0000     2.1360 ha         1 M87       0.137000
     26 H26          5.2000     0.0010     0.0000 ha         1 M87       0.137000
     27 H141         5.1270     0.5090    -2.3720 hc         1 M87       0.058700
     28 H142         3.5960     0.5090    -3.2580 hc         1 M87       0.058700
     29 H131         3.4900    -1.9550    -3.0730 h1         1 M87       0.036200
     30 H132         5.0210    -1.9550    -2.1880 h1         1 M87       0.036200
     31 H12          4.6370    -0.9590    -4.9090 hn         1 M87       0.357800
     32 H111         6.0270    -3.3360    -3.9270 h1         1 M87       0.040200
     33 H112         4.4950    -3.3370    -4.8120 h1         1 M87       0.040200
     34 H07          8.1070    -2.7740    -5.0140 ha         1 M87       0.136000
     35 H09          4.4200    -2.8680    -7.1430 ha         1 M87       0.146000
     36 H06          9.3730    -2.7080    -7.1000 ha         1 M87       0.133000
     37 H04          9.3940    -2.6430    -9.5950 ha         1 M87       0.139000
     38 H03          8.0980    -2.6220   -11.6860 ha         1 M87       0.142000
     39 H021         5.1810    -1.7990   -12.2670 hn         1 M87       0.436800
     40 H022         5.2140    -3.5320   -12.3040 hn         1 M87       0.436800
@<TRIPOS>BOND
     1     1     2 1
     2     2     3 ar
     3     2     6 ar
     4     3     4 ar
     5     4     5 ar
     6     5     7 ar
     7     6     7 ar
     8     7     8 1
     9     8     9 1
    10     9    10 1
    11    10    11 1
    12    11    12 1
    13    12    13 ar
    14    12    15 ar
    15    13    14 ar
    16    14    18 ar
    17    15    16 ar
    18    16    17 ar
    19    16    18 ar
    20    17    21 ar
    21    18    19 ar
    22    19    20 ar
    23    20    21 ar
    24    21    22 1
    25     3    23 1
    26     6    24 1
    27     4    25 1
    28     5    26 1
    29     8    27 1
    30     8    28 1
    31     9    29 1
    32     9    30 1
    33    10    31 1
    34    11    32 1
    35    11    33 1
    36    13    34 1
    37    15    35 1
    38    14    36 1
    39    19    37 1
    40    20    38 1
    41    22    39 1
    42    22    40 1
@<TRIPOS>SUBSTRUCTURE
     1 M87         1 TEMP              0 ****  ****    0 ROOT
