@<TRIPOS>MOLECULE
molecule
   52    54     1     0     0
SMALL
bcc


@<TRIPOS>ATOM
      1 OAA          0.0000     0.0000     0.0000 o          1 M8A      -0.521100
      2 CAD          1.2080     0.0000     0.0000 c          1 M8A       0.566900
      3 CAN          1.9610     0.0000     1.3050 c3         1 M8A      -0.200400
      4 CAP          2.9330    -1.1810     1.3320 c3         1 M8A      -0.025100
      5 CAX          3.6880    -1.1810     2.6370 ca         1 M8A      -0.105300
      6 CAK          3.1830    -1.8680     3.7250 ca         1 M8A      -0.105500
      7 CAM          3.8710    -1.8700     4.9230 ca         1 M8A      -0.142500
      8 CAJ          4.8850    -0.4970     2.7410 ca         1 M8A      -0.105500
      9 CAL          5.5790    -0.4960     3.9360 ca         1 M8A      -0.142500
     10 CAZ          5.0720    -1.1800     5.0320 ca         1 M8A       0.062600
     11 NAT          5.7710    -1.1790     6.2440 ns         1 M8A      -0.478100
     12 C            5.7350    -2.2640     7.0440 c          1 M8A       0.652100
     13 O            5.1770    -3.2730     6.6720 o          1 M8A      -0.568100
     14 CA           6.3890    -2.2210     8.4010 c3         1 M8A       0.064700
     15 CB           5.4640    -1.5030     9.4070 c3         1 M8A      -0.088400
     16 CG           5.6600    -2.3260    10.7080 c3         1 M8A      -0.098400
     17 CD           5.8290    -3.7600    10.1460 c3         1 M8A       0.102000
     18 N            6.5970    -3.5890     8.8990 n          1 M8A      -0.468800
     19 CAW          7.3620    -4.5300     8.3130 c          1 M8A       0.779100
     20 OAC          7.9540    -4.2770     7.2810 o          1 M8A      -0.605000
     21 OAU          7.4720    -5.7510     8.8700 os         1 M8A      -0.431900
     22 CAS          8.3150    -6.7150     8.1830 c3         1 M8A       0.215700
     23 CAY          8.3160    -8.0140     8.9480 ca         1 M8A      -0.101300
     24 CAH          7.3720    -8.9830     8.6650 ca         1 M8A      -0.102000
     25 CAF          7.3750   -10.1750     9.3660 ca         1 M8A      -0.134000
     26 CAE          8.3210   -10.3970    10.3500 ca         1 M8A      -0.117000
     27 CAG          9.2650    -9.4270    10.6310 ca         1 M8A      -0.134000
     28 CAI          9.2660    -8.2380     9.9270 ca         1 M8A      -0.102000
     29 HAN1         2.5150     0.9260     1.4020 hc         1 M8A       0.071200
     30 HAN2         1.2610    -0.0890     2.1260 hc         1 M8A       0.071200
     31 HAD          1.7490     0.0380    -0.9380 h4         1 M8A      -0.006800
     32 HAP1         2.3790    -2.1070     1.2360 hc         1 M8A       0.051700
     33 HAP2         3.6330    -1.0920     0.5100 hc         1 M8A       0.051700
     34 HAK          2.2470    -2.4060     3.6390 ha         1 M8A       0.133000
     35 HAJ          5.2800     0.0360     1.8850 ha         1 M8A       0.133000
     36 HAM          3.4750    -2.4070     5.7770 ha         1 M8A       0.145000
     37 HAL          6.5170     0.0410     4.0180 ha         1 M8A       0.145000
     38 HAT          6.3070    -0.3780     6.5120 hn         1 M8A       0.322500
     39 HA           7.3390    -1.7040     8.3420 h1         1 M8A       0.071700
     40 HB1C         4.4330    -1.5490     9.0770 hc         1 M8A       0.062700
     41 HB2C         5.7820    -0.4770     9.5520 hc         1 M8A       0.062700
     42 HG1C         4.7840    -2.2610    11.3410 hc         1 M8A       0.059700
     43 HG2C         6.5530    -2.0100    11.2340 hc         1 M8A       0.059700
     44 HD1C         4.8610    -4.1960     9.9340 h1         1 M8A       0.060200
     45 HD2C         6.3820    -4.3740    10.8460 h1         1 M8A       0.060200
     46 HAS1         7.9300    -6.8840     7.1850 h1         1 M8A       0.058200
     47 HAS2         9.3260    -6.3320     8.1210 h1         1 M8A       0.058200
     48 HAH          6.6310    -8.8100     7.8940 ha         1 M8A       0.135000
     49 HAI         10.0060    -7.4780    10.1480 ha         1 M8A       0.135000
     50 HAF          6.6350   -10.9350     9.1450 ha         1 M8A       0.131500
     51 HAE          8.3210   -11.3300    10.9000 ha         1 M8A       0.130000
     52 HAG         10.0070    -9.6020    11.4000 ha         1 M8A       0.131500
@<TRIPOS>BOND
     1     1     2 2
     2     2     3 1
     3     3     4 1
     4     4     5 1
     5     5     6 ar
     6     5     8 ar
     7     6     7 ar
     8     7    10 ar
     9     8     9 ar
    10     9    10 ar
    11    10    11 1
    12    11    12 1
    13    12    13 2
    14    12    14 1
    15    14    15 1
    16    14    18 1
    17    15    16 1
    18    16    17 1
    19    17    18 1
    20    18    19 1
    21    19    20 2
    22    19    21 1
    23    21    22 1
    24    22    23 1
    25    23    24 ar
    26    23    28 ar
    27    24    25 ar
    28    25    26 ar
    29    26    27 ar
    30    27    28 ar
    31     3    29 1
    32     3    30 1
    33     2    31 1
    34     4    32 1
    35     4    33 1
    36     6    34 1
    37     8    35 1
    38     7    36 1
    39     9    37 1
    40    11    38 1
    41    14    39 1
    42    15    40 1
    43    15    41 1
    44    16    42 1
    45    16    43 1
    46    17    44 1
    47    17    45 1
    48    22    46 1
    49    22    47 1
    50    24    48 1
    51    28    49 1
    52    25    50 1
    53    26    51 1
    54    27    52 1
@<TRIPOS>SUBSTRUCTURE
     1 M8A         1 TEMP              0 ****  ****    0 ROOT
