@<TRIPOS>MOLECULE
M8A
   52    54     1     0     0
SMALL
bcc


@<TRIPOS>ATOM
      1 OAA          0.0000     0.0000     0.0000 o          1 M8A      -0.554100
      2 CAD          1.2080     0.0000     0.0000 c          1 M8A       0.653900
      3 CAN          1.9610     0.0000     1.3050 c3         1 M8A      -0.157400
      4 CAP          2.9330    -1.1810     1.3320 c3         1 M8A       0.047900
      5 CAX          3.6880    -1.1810     2.6370 ca         1 M8A      -0.111300
      6 CAK          3.1830    -1.8680     3.7250 ca         1 M8A      -0.076000
      7 CAM          3.8710    -1.8700     4.9230 ca         1 M8A      -0.114000
      8 CAJ          4.8850    -0.4970     2.7410 ca         1 M8A      -0.076000
      9 CAL          5.5790    -0.4960     3.9360 ca         1 M8A      -0.114000
     10 CAZ          5.0720    -1.1800     5.0320 ca         1 M8A      -0.086400
     11 NAT          5.7710    -1.1790     6.2440 ns         1 M8A      -0.029100
     12 C            5.7350    -2.2640     7.0440 c          1 M8A       0.555100
     13 O            5.1770    -3.2730     6.6720 o          1 M8A      -0.614100
     14 CA           6.3890    -2.2210     8.4010 c3         1 M8A      -0.027300
     15 CB           5.4640    -1.5030     9.4070 c3         1 M8A      -0.026400
     16 CG           5.6600    -2.3260    10.7080 c3         1 M8A      -0.032400
     17 CD           5.8290    -3.7600    10.1460 c3         1 M8A       0.047000
     18 N            6.5970    -3.5890     8.8990 n          1 M8A      -0.115800
     19 CAW          7.3620    -4.5300     8.3130 c          1 M8A       0.720100
     20 OAC          7.9540    -4.2770     7.2810 o          1 M8A      -0.658000
     21 OAU          7.4720    -5.7510     8.8700 os         1 M8A      -0.417900
     22 CAS          8.3150    -6.7150     8.1830 c3         1 M8A       0.301700
     23 CAY          8.3160    -8.0140     8.9480 ca         1 M8A      -0.119300
     24 CAH          7.3720    -8.9830     8.6650 ca         1 M8A      -0.075000
     25 CAF          7.3750   -10.1750     9.3660 ca         1 M8A      -0.107500
     26 CAE          8.3210   -10.3970    10.3500 ca         1 M8A      -0.092000
     27 CAG          9.2650    -9.4270    10.6310 ca         1 M8A      -0.107500
     28 CAI          9.2660    -8.2380     9.9270 ca         1 M8A      -0.075000
     29 HAN1         2.5150     0.9260     1.4020 hc         1 M8A       0.039700
     30 HAN2         1.2610    -0.0890     2.1260 hc         1 M8A       0.039700
     31 HAD          1.7490     0.0380    -0.9380 h4         1 M8A      -0.042800
     32 HAP1         2.3790    -2.1070     1.2360 hc         1 M8A       0.019200
     33 HAP2         3.6330    -1.0920     0.5100 hc         1 M8A       0.019200
     34 HAK          2.2470    -2.4060     3.6390 ha         1 M8A       0.106500
     35 HAJ          5.2800     0.0360     1.8850 ha         1 M8A       0.106500
     36 HAM          3.4750    -2.4070     5.7770 ha         1 M8A       0.121500
     37 HAL          6.5170     0.0410     4.0180 ha         1 M8A       0.121500
     38 HAT          6.3070    -0.3780     6.5120 hn         1 M8A       0.165500
     39 HA           7.3390    -1.7040     8.3420 h1         1 M8A       0.041700
     40 HB1C         4.4330    -1.5490     9.0770 hc         1 M8A       0.028700
     41 HB2C         5.7820    -0.4770     9.5520 hc         1 M8A       0.028700
     42 HG1C         4.7840    -2.2610    11.3410 hc         1 M8A       0.027700
     43 HG2C         6.5530    -2.0100    11.2340 hc         1 M8A       0.027700
     44 HD1C         4.8610    -4.1960     9.9340 h1         1 M8A       0.028200
     45 HD2C         6.3820    -4.3740    10.8460 h1         1 M8A       0.028200
     46 HAS1         7.9300    -6.8840     7.1850 h1         1 M8A       0.016200
     47 HAS2         9.3260    -6.3320     8.1210 h1         1 M8A       0.016200
     48 HAH          6.6310    -8.8100     7.8940 ha         1 M8A       0.107000
     49 HAI         10.0060    -7.4780    10.1480 ha         1 M8A       0.107000
     50 HAF          6.6350   -10.9350     9.1450 ha         1 M8A       0.103500
     51 HAE          8.3210   -11.3300    10.9000 ha         1 M8A       0.101000
     52 HAG         10.0070    -9.6020    11.4000 ha         1 M8A       0.103500
@<TRIPOS>BOND
     1     1     2 2   
     2     2     3 1   
     3     2    31 1   
     4     3     4 1   
     5     3    29 1   
     6     3    30 1   
     7     4     5 1   
     8     4    32 1   
     9     4    33 1   
    10     5     6 ar  
    11     5     8 ar  
    12     6     7 ar  
    13     6    34 1   
    14     7    10 ar  
    15     7    36 1   
    16     8     9 ar  
    17     8    35 1   
    18     9    10 ar  
    19     9    37 1   
    20    10    11 1   
    21    11    12 1   
    22    11    38 1   
    23    12    13 2   
    24    12    14 1   
    25    14    15 1   
    26    14    18 1   
    27    14    39 1   
    28    15    16 1   
    29    15    40 1   
    30    15    41 1   
    31    16    17 1   
    32    16    42 1   
    33    16    43 1   
    34    17    18 1   
    35    17    44 1   
    36    17    45 1   
    37    18    19 1   
    38    19    20 2   
    39    19    21 1   
    40    21    22 1   
    41    22    23 1   
    42    22    46 1   
    43    22    47 1   
    44    23    24 ar  
    45    23    28 ar  
    46    24    25 ar  
    47    24    48 1   
    48    25    26 ar  
    49    25    50 1   
    50    26    27 ar  
    51    26    51 1   
    52    27    28 ar  
    53    27    52 1   
    54    28    49 1   
@<TRIPOS>SUBSTRUCTURE
     1 M8A         1 TEMP              0 ****  ****    0 ROOT
