@<TRIPOS>MOLECULE
molecule
   53    55     1     0     0
SMALL
bcc


@<TRIPOS>ATOM
      1 N2           0.0000     0.0000     0.0000 nz         1 M8D      -0.810600
      2 C21          1.4690     0.0000     0.0000 c3         1 M8D       0.161100
      3 C18          1.9710     0.0000     1.4210 ca         1 M8D      -0.195300
      4 C16          2.2010    -1.1970     2.0720 ca         1 M8D      -0.102000
      5 C20          2.2060     1.1980     2.0720 ca         1 M8D      -0.108000
      6 C19          2.6670     1.1960     3.3740 ca         1 M8D      -0.109000
      7 C17          2.8920    -0.0010     4.0290 ca         1 M8D      -0.069000
      8 C15          2.6610    -1.1980     3.3770 ca         1 M8D      -0.055300
      9 C14          2.9050    -2.5030     4.0890 c3         1 M8D       0.006200
     10 C3           1.6470    -2.9340     4.7950 ca         1 M8D      -0.066300
     11 C5           1.4600    -2.6280     6.1090 ca         1 M8D      -0.121000
     12 C4           0.3010    -3.0190     6.7770 ca         1 M8D      -0.135000
     13 C2          -0.6770    -3.7170     6.1350 ca         1 M8D      -0.156300
     14 C1           0.6570    -3.6480     4.1020 ca         1 M8D      -0.155300
     15 C8           0.8130    -3.9790     2.7400 ca         1 M8D      -0.111000
     16 C7          -0.1850    -4.6750     2.1270 ca         1 M8D      -0.214600
     17 C6          -1.3290    -5.0410     2.8500 ca         1 M8D       0.691200
     18 N1          -2.3360    -5.7480     2.2130 nv         1 M8D      -1.074500
     19 N           -1.4680    -4.7290     4.1220 nb         1 M8D      -0.689000
     20 C           -0.5200    -4.0510     4.7790 ca         1 M8D       0.436600
     21 C10         -0.0600    -5.0490     0.6730 c3         1 M8D      -0.026100
     22 C9           0.3820    -6.5090     0.5580 c3         1 M8D      -0.074400
     23 C12          0.5090    -6.8890    -0.9180 c3         1 M8D      -0.083400
     24 C11          0.9530    -8.3500    -1.0340 c3         1 M8D      -0.083400
     25 C13          1.0790    -8.7300    -2.5100 c3         1 M8D      -0.092100
     26 H1          -0.3340     0.6370     0.6970 hn         1 M8D       0.454800
     27 H2          -0.3340    -0.9210     0.2030 hn         1 M8D       0.454800
     28 H4           1.8300    -0.8840    -0.5110 hx         1 M8D       0.110700
     29 H5           1.8300     0.8850    -0.5110 hx         1 M8D       0.110700
     30 H6           2.0200    -2.1350     1.5620 ha         1 M8D       0.140000
     31 H7           2.0300     2.1360     1.5600 ha         1 M8D       0.135000
     32 H8           2.8500     2.1350     3.8850 ha         1 M8D       0.159000
     33 H9           3.2530    -0.0010     5.0500 ha         1 M8D       0.160000
     34 H10          3.7000    -2.3750     4.8140 hc         1 M8D       0.071200
     35 H11          3.1920    -3.2600     3.3690 hc         1 M8D       0.071200
     36 H12          2.1330    -2.3120     6.8960 ha         1 M8D       0.147000
     37 H13          0.1250    -2.7560     7.8130 ha         1 M8D       0.145000
     38 H14         -1.5450    -3.9850     6.7250 ha         1 M8D       0.158000
     39 H15          1.7040    -3.6890     2.1960 ha         1 M8D       0.131000
     40 H16         -2.4590    -6.7230     2.4010 hn         1 M8D       0.441800
     41 H17         -2.9780    -5.2710     1.6110 hn         1 M8D       0.441800
     42 H18         -1.0180    -4.9230     0.1840 hc         1 M8D       0.034200
     43 H19          0.6750    -4.4110     0.1970 hc         1 M8D       0.034200
     44 H20          1.3410    -6.6350     1.0470 hc         1 M8D       0.053700
     45 H21         -0.3520    -7.1470     1.0340 hc         1 M8D       0.053700
     46 H22          1.2440    -6.2510    -1.3940 hc         1 M8D       0.036700
     47 H23         -0.4490    -6.7640    -1.4070 hc         1 M8D       0.036700
     48 H24          1.9120    -8.4760    -0.5450 hc         1 M8D       0.045200
     49 H25          0.2190    -8.9890    -0.5580 hc         1 M8D       0.045200
     50 H26          0.1180    -8.6100    -2.9970 hc         1 M8D       0.036367
     51 H27          1.3990    -9.7620    -2.5910 hc         1 M8D       0.036367
     52 H28          1.8080    -8.0870    -2.9880 hc         1 M8D       0.036367
     53 H231        -0.3340     0.2920    -0.8970 hn         1 M8D       0.454800
@<TRIPOS>BOND
     1    25    24 1
     2    24    23 1
     3    23    22 1
     4     9    10 1
     5     9     8 1
     6    22    21 1
     7    10    11 ar
     8    10    14 ar
     9     7     8 ar
    10     7     6 ar
    11    11    12 ar
    12     8     4 ar
    13    15    14 ar
    14    15    16 ar
    15    14    20 ar
    16    12    13 ar
    17    21    16 1
    18     6     5 ar
    19    16    17 ar
    20    20    13 ar
    21    20    19 ar
    22     4     3 ar
    23    17    19 ar
    24    17    18 1
    25     5     3 ar
    26     3     2 1
    27     2     1 1
    28     1    26 1
    29     1    27 1
    30     2    28 1
    31     2    29 1
    32     4    30 1
    33     5    31 1
    34     6    32 1
    35     7    33 1
    36     9    34 1
    37     9    35 1
    38    11    36 1
    39    12    37 1
    40    13    38 1
    41    15    39 1
    42    18    40 1
    43    18    41 1
    44    21    42 1
    45    21    43 1
    46    22    44 1
    47    22    45 1
    48    23    46 1
    49    23    47 1
    50    24    48 1
    51    24    49 1
    52    25    50 1
    53    25    51 1
    54    25    52 1
    55    53     1 1
@<TRIPOS>SUBSTRUCTURE
     1 M8D         1 TEMP              0 ****  ****    0 ROOT
