@<TRIPOS>MOLECULE
M8D
   53    55     1     0     0
SMALL
bcc


@<TRIPOS>ATOM
      1 N2           0.0000     0.0000     0.0000 nz         1 M8D       0.071400
      2 C21          1.4690     0.0000     0.0000 c3         1 M8D       0.039100
      3 C18          1.9710     0.0000     1.4210 ca         1 M8D      -0.210300
      4 C16          2.2010    -1.1970     2.0720 ca         1 M8D      -0.083000
      5 C20          2.2060     1.1980     2.0720 ca         1 M8D      -0.075000
      6 C19          2.6670     1.1960     3.3740 ca         1 M8D      -0.074000
      7 C17          2.8920    -0.0010     4.0290 ca         1 M8D      -0.036000
      8 C15          2.6610    -1.1980     3.3770 ca         1 M8D      -0.056300
      9 C14          2.9050    -2.5030     4.0890 c3         1 M8D       0.080200
     10 C3           1.6470    -2.9340     4.7950 ca         1 M8D      -0.072300
     11 C5           1.4600    -2.6280     6.1090 ca         1 M8D      -0.092000
     12 C4           0.3010    -3.0190     6.7770 ca         1 M8D      -0.112000
     13 C2          -0.6770    -3.7170     6.1350 ca         1 M8D      -0.131300
     14 C1           0.6570    -3.6480     4.1020 ca         1 M8D      -0.143300
     15 C8           0.8130    -3.9790     2.7400 ca         1 M8D      -0.104000
     16 C7          -0.1850    -4.6750     2.1270 ca         1 M8D      -0.211600
     17 C6          -1.3290    -5.0410     2.8500 ca         1 M8D       0.505200
     18 N1          -2.3360    -5.7480     2.2130 nv         1 M8D      -0.645500
     19 N           -1.4680    -4.7290     4.1220 nb         1 M8D      -0.562000
     20 C           -0.5200    -4.0510     4.7790 ca         1 M8D       0.386600
     21 C10         -0.0600    -5.0490     0.6730 c3         1 M8D       0.040900
     22 C9           0.3820    -6.5090     0.5580 c3         1 M8D      -0.026400
     23 C12          0.5090    -6.8890    -0.9180 c3         1 M8D      -0.029400
     24 C11          0.9530    -8.3500    -1.0340 c3         1 M8D      -0.026400
     25 C13          1.0790    -8.7300    -2.5100 c3         1 M8D       0.006900
     26 H1          -0.3340     0.6370     0.6970 hn         1 M8D       0.223467
     27 H2          -0.3340    -0.9210     0.2030 hn         1 M8D       0.223467
     28 H4           1.8300    -0.8840    -0.5110 hx         1 M8D       0.080700
     29 H5           1.8300     0.8850    -0.5110 hx         1 M8D       0.080700
     30 H6           2.0200    -2.1350     1.5620 ha         1 M8D       0.122000
     31 H7           2.0300     2.1360     1.5600 ha         1 M8D       0.108000
     32 H8           2.8500     2.1350     3.8850 ha         1 M8D       0.126000
     33 H9           3.2530    -0.0010     5.0500 ha         1 M8D       0.127000
     34 H10          3.7000    -2.3750     4.8140 hc         1 M8D       0.037200
     35 H11          3.1920    -3.2600     3.3690 hc         1 M8D       0.037200
     36 H12          2.1330    -2.3120     6.8960 ha         1 M8D       0.122000
     37 H13          0.1250    -2.7560     7.8130 ha         1 M8D       0.115000
     38 H14         -1.5450    -3.9850     6.7250 ha         1 M8D       0.125000
     39 H15          1.7040    -3.6890     2.1960 ha         1 M8D       0.118000
     40 H16         -2.4590    -6.7230     2.4010 hn         1 M8D       0.281800
     41 H17         -2.9780    -5.2710     1.6110 hn         1 M8D       0.281800
     42 H18         -1.0180    -4.9230     0.1840 hc         1 M8D       0.005700
     43 H19          0.6750    -4.4110     0.1970 hc         1 M8D       0.005700
     44 H20          1.3410    -6.6350     1.0470 hc         1 M8D       0.025700
     45 H21         -0.3520    -7.1470     1.0340 hc         1 M8D       0.025700
     46 H22          1.2440    -6.2510    -1.3940 hc         1 M8D       0.010200
     47 H23         -0.4490    -6.7640    -1.4070 hc         1 M8D       0.010200
     48 H24          1.9120    -8.4760    -0.5450 hc         1 M8D       0.016700
     49 H25          0.2190    -8.9890    -0.5580 hc         1 M8D       0.016700
     50 H26          0.1180    -8.6100    -2.9970 hc         1 M8D       0.003367
     51 H27          1.3990    -9.7620    -2.5910 hc         1 M8D       0.003367
     52 H28          1.8080    -8.0870    -2.9880 hc         1 M8D       0.003367
     53 H231        -0.3340     0.2920    -0.8970 hn         1 M8D       0.223467
@<TRIPOS>BOND
     1     1     2 1   
     2     1    26 1   
     3     1    27 1   
     4     1    53 1   
     5     2     3 1   
     6     2    28 1   
     7     2    29 1   
     8     3     4 ar  
     9     3     5 ar  
    10     4     8 ar  
    11     4    30 1   
    12     5     6 ar  
    13     5    31 1   
    14     6     7 ar  
    15     6    32 1   
    16     7     8 ar  
    17     7    33 1   
    18     8     9 1   
    19     9    10 1   
    20     9    34 1   
    21     9    35 1   
    22    10    11 ar  
    23    10    14 ar  
    24    11    12 ar  
    25    11    36 1   
    26    12    13 ar  
    27    12    37 1   
    28    13    20 ar  
    29    13    38 1   
    30    14    15 ar  
    31    14    20 ar  
    32    15    16 ar  
    33    15    39 1   
    34    16    17 ar  
    35    16    21 1   
    36    17    18 1   
    37    17    19 ar  
    38    18    40 1   
    39    18    41 1   
    40    19    20 ar  
    41    21    22 1   
    42    21    42 1   
    43    21    43 1   
    44    22    23 1   
    45    22    44 1   
    46    22    45 1   
    47    23    24 1   
    48    23    46 1   
    49    23    47 1   
    50    24    25 1   
    51    24    48 1   
    52    24    49 1   
    53    25    50 1   
    54    25    51 1   
    55    25    52 1   
@<TRIPOS>SUBSTRUCTURE
     1 M8D         1 TEMP              0 ****  ****    0 ROOT
