@<TRIPOS>MOLECULE
M8E
   56    58     1     0     0
SMALL
bcc


@<TRIPOS>ATOM
      1 N1           0.0000     0.0000     0.0000 nz         1 M8E       0.278900
      2 O1           1.4640     0.0000     0.0000 os         1 M8E      -0.316100
      3 C6           4.1920     0.0000     2.5820 c3         1 M8E      -0.031400
      4 C7           5.7180     0.0010     2.4600 c3         1 M8E       0.159800
      5 N2           6.3160    -0.0000     3.8030 n3         1 M8E      -0.528600
      6 C8           6.0210     1.2530     4.5100 c3         1 M8E       0.163100
      7 C5'          7.7640    -0.2380     3.7340 c3         1 M8E       0.145800
      8 C4'          8.3090    -0.4800     5.1420 c3         1 M8E       0.155100
      9 O4'          7.7810    -1.7090     5.6670 os         1 M8E      -0.385600
     10 C1'          8.8110    -2.2930     6.4910 c3         1 M8E       0.148800
     11 N6           8.5900    -3.7320     6.6520 na         1 M8E       0.219000
     12 C13          8.7040    -4.4470     7.8180 ca         1 M8E       0.237800
     13 N3           9.0150    -4.1440     9.0740 nb         1 M8E      -0.602000
     14 C9           9.0400    -5.0770    10.0030 ca         1 M8E       0.641900
     15 N4           8.7640    -6.3420     9.7460 nb         1 M8E      -0.664000
     16 C10          8.4430    -6.7420     8.5200 ca         1 M8E       0.599200
     17 N7           8.1550    -8.0700     8.2600 nv         1 M8E      -0.645500
     18 C11          8.4000    -5.7820     7.4910 ca         1 M8E      -0.183200
     19 N5           8.1220    -5.8210     6.1700 nc         1 M8E      -0.480100
     20 C12          8.2250    -4.6150     5.6650 cd         1 M8E       0.275100
     21 C2'         10.1110    -2.0270     5.6890 c3         1 M8E       0.123100
     22 O2'         11.2480    -2.0040     6.5540 oh         1 M8E      -0.538800
     23 C3'          9.8420    -0.6230     5.0930 c3         1 M8E       0.126100
     24 O3'         10.4640     0.3870     5.8920 oh         1 M8E      -0.547800
     25 C5           3.5700     0.0000     1.1840 c3         1 M8E      -0.019400
     26 C4           2.0450     0.0000     1.3050 c3         1 M8E       0.205400
     27 C15          7.6390    -5.2020     3.3850 c2         1 M8E      -0.112000
     28 C14          7.9900    -4.2610     4.2560 cf         1 M8E      -0.196600
     29 HN1         -0.3340     0.9420     0.0530 hn         1 M8E       0.222467
     30 HN1A        -0.3340    -0.5170     0.7900 hn         1 M8E       0.222467
     31 H6           3.8730    -0.8850     3.1190 hc         1 M8E       0.033200
     32 H6A          3.8720     0.8840     3.1190 hc         1 M8E       0.033200
     33 H7           6.0370     0.8860     1.9230 h1         1 M8E       0.012700
     34 H7A          6.0380    -0.8830     1.9220 h1         1 M8E       0.012700
     35 H8           6.7870     1.9840     4.2830 h1         1 M8E       0.010700
     36 H8A          5.0570     1.6290     4.1910 h1         1 M8E       0.010700
     37 H8B          6.0020     1.0690     5.5770 h1         1 M8E       0.010700
     38 H5'          8.2510     0.6280     3.3020 h1         1 M8E       0.018700
     39 H5'A         7.9580    -1.1070     3.1170 h1         1 M8E       0.018700
     40 H4'          8.0380     0.3420     5.7940 h1         1 M8E       0.050700
     41 H1'          8.8520    -1.7970     7.4540 h2         1 M8E       0.080700
     42 H9           9.2780    -4.9020    11.0450 h5         1 M8E       0.004100
     43 HN7          7.2250    -8.4160     8.3930 hn         1 M8E       0.282800
     44 HN7A         8.8850    -8.6950     7.9810 hn         1 M8E       0.282800
     45 H2'         10.2310    -2.7600     4.9010 h1         1 M8E       0.027700
     46 HO2'        12.0100    -2.2900     6.0780 ho         1 M8E       0.394000
     47 H3'         10.1930    -0.5750     4.0690 h1         1 M8E       0.011700
     48 HO3'        11.0680     0.8800     5.3610 ho         1 M8E       0.393000
     49 H5           3.8890     0.8850     0.6460 hc         1 M8E       0.038200
     50 H5A          3.8890    -0.8840     0.6460 hc         1 M8E       0.038200
     51 H4           1.7250    -0.8850     1.8430 h1         1 M8E       0.019200
     52 H4A          1.7250     0.8840     1.8430 h1         1 M8E       0.019200
     53 H15          7.5260    -6.2290     3.7120 ha         1 M8E       0.093000
     54 H15A         7.4660    -4.9420     2.3480 ha         1 M8E       0.093000
     55 H14          8.1030    -3.2340     3.9290 ha         1 M8E       0.114000
     56 H13         -0.3340    -0.4390    -0.8350 hn         1 M8E       0.222467
@<TRIPOS>BOND
     1     1     2 1   
     2     1    29 1   
     3     1    30 1   
     4     1    56 1   
     5     2    26 1   
     6     3     4 1   
     7     3    25 1   
     8     3    31 1   
     9     3    32 1   
    10     4     5 1   
    11     4    33 1   
    12     4    34 1   
    13     5     6 1   
    14     5     7 1   
    15     6    35 1   
    16     6    36 1   
    17     6    37 1   
    18     7     8 1   
    19     7    38 1   
    20     7    39 1   
    21     8     9 1   
    22     8    23 1   
    23     8    40 1   
    24     9    10 1   
    25    10    11 1   
    26    10    21 1   
    27    10    41 1   
    28    11    12 1   
    29    11    20 1   
    30    12    13 ar  
    31    12    18 ar  
    32    13    14 ar  
    33    14    15 ar  
    34    14    42 1   
    35    15    16 ar  
    36    16    17 1   
    37    16    18 ar  
    38    17    43 1   
    39    17    44 1   
    40    18    19 1   
    41    19    20 2   
    42    20    28 1   
    43    21    22 1   
    44    21    23 1   
    45    21    45 1   
    46    22    46 1   
    47    23    24 1   
    48    23    47 1   
    49    24    48 1   
    50    25    26 1   
    51    25    49 1   
    52    25    50 1   
    53    26    51 1   
    54    26    52 1   
    55    27    28 2   
    56    27    53 1   
    57    27    54 1   
    58    28    55 1   
@<TRIPOS>SUBSTRUCTURE
     1 M8E         1 TEMP              0 ****  ****    0 ROOT
