@<TRIPOS>MOLECULE
molecule
   56    58     1     0     0
SMALL
bcc


@<TRIPOS>ATOM
      1 N1           0.0000     0.0000     0.0000 nz         1 M8E      -0.627100
      2 O1           1.4640     0.0000     0.0000 os         1 M8E      -0.152100
      3 C6           4.1920     0.0000     2.5820 c3         1 M8E      -0.078400
      4 C7           5.7180     0.0010     2.4600 c3         1 M8E       0.168800
      5 N2           6.3160    -0.0000     3.8030 n3         1 M8E      -0.716600
      6 C8           6.0210     1.2530     4.5100 c3         1 M8E       0.140100
      7 C5'          7.7640    -0.2380     3.7340 c3         1 M8E       0.161800
      8 C4'          8.3090    -0.4800     5.1420 c3         1 M8E       0.127100
      9 O4'          7.7810    -1.7090     5.6670 os         1 M8E      -0.399600
     10 C1'          8.8110    -2.2930     6.4910 c3         1 M8E       0.258800
     11 N6           8.5900    -3.7320     6.6520 na         1 M8E      -0.243000
     12 C13          8.7040    -4.4470     7.8180 ca         1 M8E       0.487800
     13 N3           9.0150    -4.1440     9.0740 nb         1 M8E      -0.782000
     14 C9           9.0400    -5.0770    10.0030 ca         1 M8E       0.742900
     15 N4           8.7640    -6.3420     9.7460 nb         1 M8E      -0.823000
     16 C10          8.4430    -6.7420     8.5200 ca         1 M8E       0.785200
     17 N7           8.1550    -8.0700     8.2600 nv         1 M8E      -0.994500
     18 C11          8.4000    -5.7820     7.4910 ca         1 M8E      -0.204200
     19 N5           8.1220    -5.8210     6.1700 nc         1 M8E      -0.576100
     20 C12          8.2250    -4.6150     5.6650 cd         1 M8E       0.458100
     21 C2'         10.1110    -2.0270     5.6890 c3         1 M8E       0.091100
     22 O2'         11.2480    -2.0040     6.5540 oh         1 M8E      -0.557800
     23 C3'          9.8420    -0.6230     5.0930 c3         1 M8E       0.086100
     24 O3'         10.4640     0.3870     5.8920 oh         1 M8E      -0.567800
     25 C5           3.5700     0.0000     1.1840 c3         1 M8E      -0.069400
     26 C4           2.0450     0.0000     1.3050 c3         1 M8E       0.074400
     27 C15          7.6390    -5.2020     3.3850 c2         1 M8E      -0.178000
     28 C14          7.9900    -4.2610     4.2560 cf         1 M8E      -0.198600
     29 HN1         -0.3340     0.0220    -0.9430 hn         1 M8E       0.468800
     30 HN1A        -0.3340    -0.8280     0.4530 hn         1 M8E       0.468800
     31 H6           3.8730    -0.8850     3.1190 hc         1 M8E       0.063200
     32 H6A          3.8720     0.8840     3.1190 hc         1 M8E       0.063200
     33 H7           6.0380    -0.8830     1.9220 h1         1 M8E       0.038700
     34 H7A          6.0370     0.8860     1.9230 h1         1 M8E       0.038700
     35 H8           5.4530     1.9090     3.8620 h1         1 M8E       0.040033
     36 H8A          5.4440     1.0370     5.4010 h1         1 M8E       0.040033
     37 H8B          6.9490     1.7360     4.7890 h1         1 M8E       0.040033
     38 H5'          7.9580    -1.1070     3.1170 h1         1 M8E       0.044200
     39 H5'A         8.2510     0.6280     3.3020 h1         1 M8E       0.044200
     40 H4'          8.0380     0.3420     5.7940 h1         1 M8E       0.081700
     41 H1'          8.8520    -1.7970     7.4540 h2         1 M8E       0.123700
     42 H9           9.3230    -4.8630    11.0260 h5         1 M8E       0.067100
     43 HN7          7.5670    -8.3120     7.4870 hn         1 M8E       0.450300
     44 HN7A         8.5720    -8.7900     8.8160 hn         1 M8E       0.450300
     45 H2'         10.2310    -2.7610     4.9010 h1         1 M8E       0.060700
     46 HO2'        11.9910    -2.3740     6.1060 ho         1 M8E       0.409000
     47 H3'         10.1930    -0.5750     4.0690 h1         1 M8E       0.044700
     48 HO3'        11.0870     0.8630     5.3670 ho         1 M8E       0.408000
     49 H5           3.8890     0.8850     0.6460 hc         1 M8E       0.073700
     50 H5A          3.8890    -0.8840     0.6460 hc         1 M8E       0.073700
     51 H4           1.7250    -0.8850     1.8430 h1         1 M8E       0.067200
     52 H4A          1.7250     0.8850     1.8430 h1         1 M8E       0.067200
     53 H15          7.4660    -4.9420     2.3480 ha         1 M8E       0.126500
     54 H15A         7.5260    -6.2290     3.7120 ha         1 M8E       0.126500
     55 H14          8.1030    -3.2340     3.9290 ha         1 M8E       0.136000
     56 H13         -0.3340     0.8140     0.4780 hn         1 M8E       0.468800
@<TRIPOS>BOND
     1     1     2 1
     2     2    26 1
     3     3     4 1
     4     3    25 1
     5     4     5 1
     6     5     6 1
     7     5     7 1
     8     7     8 1
     9     8     9 1
    10     8    23 1
    11     9    10 1
    12    10    11 1
    13    10    21 1
    14    11    12 1
    15    11    20 1
    16    12    13 ar
    17    12    18 ar
    18    13    14 ar
    19    14    15 ar
    20    15    16 ar
    21    16    17 1
    22    16    18 ar
    23    18    19 1
    24    19    20 2
    25    20    28 1
    26    21    22 1
    27    21    23 1
    28    23    24 1
    29    25    26 1
    30    27    28 2
    31     1    29 1
    32     1    30 1
    33     3    31 1
    34     3    32 1
    35     4    33 1
    36     4    34 1
    37     6    35 1
    38     6    36 1
    39     6    37 1
    40     7    38 1
    41     7    39 1
    42     8    40 1
    43    10    41 1
    44    14    42 1
    45    17    43 1
    46    17    44 1
    47    21    45 1
    48    22    46 1
    49    23    47 1
    50    24    48 1
    51    25    49 1
    52    25    50 1
    53    26    51 1
    54    26    52 1
    55    27    53 1
    56    27    54 1
    57    28    55 1
    58    56     1 1
@<TRIPOS>SUBSTRUCTURE
     1 M8E         1 TEMP              0 ****  ****    0 ROOT
