@<TRIPOS>MOLECULE
molecule
   49    48     1     0     0
SMALL
bcc


@<TRIPOS>ATOM
      1 C8           0.0000     0.0000     0.0000 c          1 M8F       0.660100
      2 O9           1.2130     0.0000     0.0000 o          1 M8F      -0.620100
      3 O4          -0.4910    -0.8540     6.9290 o          1 M8F      -0.778300
      4 C7          -0.7530     0.0000     1.3050 c3         1 M8F      -0.146400
      5 C2          -0.2800     0.1280     6.2570 c          1 M8F       0.868600
      6 C1           0.4700     0.0020     4.9560 c3         1 M8F       0.043500
      7 C5          -0.5250     0.0020     3.7930 c3         1 M8F      -0.239400
      8 C6           0.2410     0.0010     2.4680 c3         1 M8F      -0.046400
      9 N1           1.2330    -1.2520     4.9480 nz         1 M8F      -0.801600
     10 N10         -0.6730     0.0050    -1.1680 ns         1 M8F      -0.550900
     11 C11          0.0590     0.0100    -2.4360 c3         1 M8F       0.102700
     12 C14         -0.8040     0.6150    -3.5130 c          1 M8F       0.651100
     13 O15         -1.9220     1.0030    -3.2460 o          1 M8F      -0.610100
     14 C12          0.4230    -1.4260    -2.8210 c3         1 M8F      -0.131300
     15 S13          1.4630    -2.1530    -1.5250 sh         1 M8F      -0.366900
     16 N16         -0.3350     0.7240    -4.7710 ns         1 M8F      -0.542900
     17 C17         -1.1750     1.3120    -5.8180 c3         1 M8F       0.067700
     18 C22         -1.0360     2.8120    -5.7900 c          1 M8F       0.887600
     19 O24         -1.7190     3.5670    -6.6660 o          1 M8F      -0.823300
     20 C18         -0.7330     0.7840    -7.1840 c3         1 M8F      -0.230400
     21 C19         -0.9900    -0.7220    -7.2570 c3         1 M8F       0.056700
     22 S20         -0.4650    -1.3480    -8.8760 ss         1 M8F      -0.358200
     23 C21         -0.8430    -3.1190    -8.7720 c3         1 M8F      -0.008000
     24 O23         -0.3100     3.3370    -4.9790 o          1 M8F      -0.823300
     25 H7          -1.3770     0.8840     1.3620 hc         1 M8F       0.072200
     26 H7A         -1.3760    -0.8850     1.3630 hc         1 M8F       0.072200
     27 H1           1.1500     0.8390     4.8490 hx         1 M8F       0.081700
     28 H5           0.1300     0.8510     3.9500 hc         1 M8F       0.123200
     29 H5A         -1.5090     0.4490     3.8680 hc         1 M8F       0.123200
     30 H6           0.8630    -0.8840     2.4120 hc         1 M8F       0.039200
     31 H6A          0.8640     0.8850     2.4100 hc         1 M8F       0.039200
     32 HN1          1.9500    -1.2000     4.2510 hn         1 M8F       0.438467
     33 HN1A         1.6500    -1.4010     5.8450 hn         1 M8F       0.438467
     34 HN10        -1.6740     0.0020    -1.1680 hn         1 M8F       0.340500
     35 H11          0.9650     0.5950    -2.3280 h1         1 M8F       0.094700
     36 H12          1.2030    -0.6730    -2.8270 h1         1 M8F       0.111200
     37 H12A         0.4280    -1.7920    -3.8410 h1         1 M8F       0.111200
     38 HS13         1.8810    -3.3520    -1.9130 hs         1 M8F       0.168800
     39 HN16         0.5990     0.4340    -4.9840 hn         1 M8F       0.309500
     40 H17         -2.2100     1.0420    -5.6440 h1         1 M8F       0.052700
     41 H18         -1.7780     0.7550    -6.9010 hc         1 M8F       0.120200
     42 H18A        -0.7490     1.3970    -8.0770 hc         1 M8F       0.120200
     43 H19         -0.4290    -1.2230    -6.4770 h1         1 M8F       0.036700
     44 H19A        -2.0480    -0.9150    -7.1220 h1         1 M8F       0.036700
     45 H21         -0.2260    -3.5760    -8.0080 h1         1 M8F       0.050033
     46 H21A        -1.8880    -3.2510    -8.5190 h1         1 M8F       0.050033
     47 H21B        -0.6410    -3.5880    -9.7280 h1         1 M8F       0.050033
     48 H13          0.6140    -2.0180     4.7680 hn         1 M8F       0.438467
     49 O3          -0.6850     1.3330     6.6850 o          1 M8F      -0.778300
@<TRIPOS>BOND
     1     7     6 1
     2     5     6 1
     3     6     9 1
     4     6    27 1
     5     9    32 1
     6     9    33 1
     7     3     5 1
     8     5    49 1
     9     7     8 1
    10     7    28 1
    11     7    29 1
    12     4     8 1
    13     8    30 1
    14     8    31 1
    15     4     1 1
    16     4    25 1
    17     4    26 1
    18    10     1 1
    19     1     2 2
    20    10    11 1
    21    10    34 1
    22    14    11 1
    23    12    11 1
    24    11    35 1
    25    15    14 1
    26    14    36 1
    27    14    37 1
    28    15    38 1
    29    13    12 2
    30    16    12 1
    31    17    16 1
    32    16    39 1
    33    20    17 1
    34    17    18 1
    35    17    40 1
    36    21    20 1
    37    20    41 1
    38    20    42 1
    39    22    21 1
    40    21    43 1
    41    21    44 1
    42    23    22 1
    43    23    45 1
    44    23    46 1
    45    23    47 1
    46    19    18 1
    47    18    24 1
    48    48     9 1
@<TRIPOS>SUBSTRUCTURE
     1 M8F         1 TEMP              0 ****  ****    0 ROOT
