@<TRIPOS>MOLECULE
molecule
   49    51     1     0     0
SMALL
bcc


@<TRIPOS>ATOM
      1 N1           0.0000     0.0000     0.0000 nz         1 M8M      -0.632100
      2 O2           1.4630     0.0000     0.0000 os         1 M8M      -0.123100
      3 C4           2.0440     0.0000     1.3060 c3         1 M8M       0.078400
      4 C5           3.5690    -0.0010     1.1850 c3         1 M8M       0.172800
      5 N2           4.0120     1.2510     0.5560 n3         1 M8M      -0.727600
      6 C6           5.4000     1.1440     0.0900 c3         1 M8M       0.148100
      7 C5'          3.8510     2.3870     1.4740 c3         1 M8M       0.151800
      8 C4'          4.0810     3.6940     0.7130 c3         1 M8M       0.128100
      9 O4'          3.0390     3.8840    -0.2580 os         1 M8M      -0.415600
     10 C1'          2.7950     5.3050    -0.3420 c3         1 M8M       0.261800
     11 N5           1.4610     5.5680    -0.8890 na         1 M8M      -0.242000
     12 C11          1.1430     6.5110    -1.8340 ca         1 M8M       0.500800
     13 N4           1.8280     7.4190    -2.5210 nb         1 M8M      -0.791000
     14 C10          1.2210     8.2040    -3.3860 ca         1 M8M       0.760900
     15 N3          -0.0770     8.1340    -3.6170 nb         1 M8M      -0.825000
     16 C9          -0.8440     7.2560    -2.9780 ca         1 M8M       0.795200
     17 N7          -2.2040     7.1900    -3.2260 nv         1 M8M      -0.978500
     18 C12         -0.2410     6.3960    -2.0440 ca         1 M8M      -0.221200
     19 N6          -0.6880     5.4090    -1.2320 nc         1 M8M      -0.578100
     20 C7           0.3110     4.9180    -0.5580 cd         1 M8M       0.387800
     21 C2'          2.8820     5.7740     1.1320 c3         1 M8M       0.093100
     22 O2'          3.2330     7.1580     1.2060 oh         1 M8M      -0.550800
     23 C3'          4.0210     4.8860     1.6890 c3         1 M8M       0.084100
     24 O3'          5.2590     5.5980     1.6850 oh         1 M8M      -0.561800
     25 C8           0.2100     3.7970     0.4450 c3         1 M8M      -0.088400
     26 HN1         -0.3340     0.4760     0.8140 hn         1 M8M       0.467133
     27 HN1A        -0.3340    -0.9440     0.0050 hn         1 M8M       0.467133
     28 H4           1.7240    -0.8840     1.8430 h1         1 M8M       0.062700
     29 H4A          1.7250     0.8850     1.8430 h1         1 M8M       0.062700
     30 H5           3.8830    -0.8410     0.5770 h1         1 M8M       0.078700
     31 H5A          4.0090    -0.0850     2.1710 h1         1 M8M       0.078700
     32 H6           6.0680     1.1330     0.9420 h1         1 M8M       0.052367
     33 H6A          5.6350     1.9920    -0.5420 h1         1 M8M       0.052367
     34 H6B          5.5210     0.2280    -0.4760 h1         1 M8M       0.052367
     35 H5'          4.5720     2.3050     2.2790 h1         1 M8M       0.039200
     36 H5'A         2.8490     2.3800     1.8850 h1         1 M8M       0.039200
     37 H4'          5.0450     3.6740     0.2180 h1         1 M8M       0.091700
     38 H1'          3.5610     5.7860    -0.9390 h2         1 M8M       0.132700
     39 H10          1.8090     8.9340    -3.9290 h5         1 M8M       0.072100
     40 HN7         -2.6210     7.8100    -3.8920 hn         1 M8M       0.453300
     41 HN7A        -2.7700     6.5240    -2.7380 hn         1 M8M       0.453300
     42 H2'          1.9530     5.5770     1.6520 h1         1 M8M       0.050700
     43 HO2'         2.9100     7.5210     2.0140 ho         1 M8M       0.412000
     44 H3'          3.7770     4.5430     2.6870 h1         1 M8M       0.042700
     45 HO3'         5.6090     5.6260     2.5600 ho         1 M8M       0.413000
     46 H8          -0.8120     3.4380     0.4850 hc         1 M8M       0.043700
     47 H8A          0.8650     2.9870     0.1490 hc         1 M8M       0.043700
     48 H8B          0.5030     4.1590     1.4230 hc         1 M8M       0.043700
     49 H13         -0.3340     0.4820    -0.8110 hn         1 M8M       0.467133
@<TRIPOS>BOND
     1     1     2 1
     2     2     3 1
     3     3     4 1
     4     4     5 1
     5     5     6 1
     6     5     7 1
     7     7     8 1
     8     8     9 1
     9     8    23 1
    10     9    10 1
    11    10    11 1
    12    10    21 1
    13    11    12 1
    14    11    20 1
    15    12    13 ar
    16    12    18 ar
    17    13    14 ar
    18    14    15 ar
    19    15    16 ar
    20    16    17 1
    21    16    18 ar
    22    18    19 1
    23    19    20 2
    24    20    25 1
    25    21    22 1
    26    21    23 1
    27    23    24 1
    28     1    26 1
    29     1    27 1
    30     3    28 1
    31     3    29 1
    32     4    30 1
    33     4    31 1
    34     6    32 1
    35     6    33 1
    36     6    34 1
    37     7    35 1
    38     7    36 1
    39     8    37 1
    40    10    38 1
    41    14    39 1
    42    17    40 1
    43    17    41 1
    44    21    42 1
    45    22    43 1
    46    23    44 1
    47    24    45 1
    48    25    46 1
    49    25    47 1
    50    25    48 1
    51    49     1 1
@<TRIPOS>SUBSTRUCTURE
     1 M8M         1 TEMP              0 ****  ****    0 ROOT
