@<TRIPOS>MOLECULE
M8O
   20    19     1     0     0
SMALL
bcc


@<TRIPOS>ATOM
      1 C1         -0.4740   -0.6930    0.8190 ce        1 M8O     -0.146200
      2 O1         -0.6620    0.2710    6.3690 o         1 M8O     -0.847800
      3 C2         -0.3690    1.4840    6.5710 c         1 M8O      0.923600
      4 O2          0.2900   -0.4860   -1.4140 o         1 M8O     -0.843300
      5 C3          0.6350   -0.6600   -0.2060 c         1 M8O      0.898800
      6 O3         -0.6380    2.1030    7.6390 o         1 M8O     -0.847800
      7 C4          0.3160    2.2920    5.4440 c3        1 M8O     -0.303400
      8 O4          1.8250   -0.8760    0.1550 o         1 M8O     -0.843300
      9 C5          1.4160    1.5480    4.7650 c         1 M8O      0.623100
     10 O5          2.6140    1.7610    5.0050 o         1 M8O     -0.608100
     11 C6          0.9960    0.4760    3.7960 c3        1 M8O     -0.301400
     12 O6          0.4300    2.1290    2.1320 o         1 M8O     -0.571100
     13 C7         -0.6120   -0.0150    1.9570 cf        1 M8O     -0.281200
     14 C50         0.2980    0.9760    2.5590 c         1 M8O      0.624300
     15 H1         -1.2720   -1.4040    0.5350 ha        1 M8O      0.087000
     16 H4          0.7120    3.2420    5.8840 hc        1 M8O      0.052700
     17 H4A        -0.4720    2.5440    4.6890 hc        1 M8O      0.052700
     18 H6          0.3020   -0.2090    4.3680 hc        1 M8O      0.108700
     19 H6A         1.8880   -0.1140    3.4530 hc        1 M8O      0.108700
     20 H7         -1.4990   -0.1790    2.5980 ha        1 M8O      0.112000
@<TRIPOS>BOND
     1    1    5 1   
     2    1   13 2   
     3    1   15 1   
     4    2    3 1   
     5    3    6 1   
     6    3    7 1   
     7    4    5 1   
     8    5    8 1   
     9    7    9 1   
    10    7   16 1   
    11    7   17 1   
    12    9   10 2   
    13    9   11 1   
    14   11   14 1   
    15   11   18 1   
    16   11   19 1   
    17   12   14 2   
    18   13   14 1   
    19   13   20 1   
@<TRIPOS>SUBSTRUCTURE
     1 M8O         1 TEMP              0 ****  ****    0 ROOT
