@<TRIPOS>MOLECULE
molecule
   20    19     1     0     0
SMALL
bcc


@<TRIPOS>ATOM
      1 C1           0.0000     0.0000     0.0000 ce         1 M8O      -0.241200
      2 O1           0.9350     1.8780     8.3280 o          1 M8O      -0.843800
      3 C2           1.0100     1.8480     6.9880 c          1 M8O       0.888600
      4 O2           2.1500     0.0020    -1.1660 o          1 M8O      -0.773800
      5 C3           1.4760     0.0000     0.0000 c          1 M8O       0.935800
      6 O3           1.8670     2.4800     6.4160 o          1 M8O      -0.843800
      7 C4           0.0280     1.0240     6.1950 c3         1 M8O      -0.280400
      8 O4           2.0830     0.0000     1.0520 o          1 M8O      -0.773800
      9 C5           0.3280     1.1600     4.7250 c          1 M8O       0.527100
     10 O5           1.2450     1.8540     4.3580 o          1 M8O      -0.413100
     11 C6          -0.5170     0.4310     3.7130 c3         1 M8O      -0.271400
     12 O6           0.9400     1.4690     2.1730 o          1 M8O      -0.472100
     13 C7          -0.6730     0.1370     1.1560 cf         1 M8O      -0.382200
     14 C50         -0.0120     0.7330     2.3250 c          1 M8O       0.577300
     15 H1           0.4580     0.9720    -0.1360 ha         1 M8O       0.101000
     16 H4           0.1110    -0.0160     6.4860 hc         1 M8O       0.039200
     17 H4A         -0.9780     1.3750     6.3930 hc         1 M8O       0.039200
     18 H6          -0.4580    -0.6350     3.8950 hc         1 M8O       0.056700
     19 H6A         -1.5460     0.7560     3.8010 hc         1 M8O       0.056700
     20 H7          -0.1830    -0.5700     1.8150 ha         1 M8O       0.074000
@<TRIPOS>BOND
     1    13     1 2
     2     1     5 1
     3     1    15 1
     4     3     2 1
     5     7     3 1
     6     6     3 1
     7     5     4 1
     8     5     8 1
     9     9     7 1
    10     7    16 1
    11     7    17 1
    12    11     9 1
    13    10     9 2
    14    14    11 1
    15    11    18 1
    16    11    19 1
    17    12    14 2
    18    13    14 1
    19    13    20 1
@<TRIPOS>SUBSTRUCTURE
     1 M8O         1 TEMP              0 ****  ****    0 ROOT
