@<TRIPOS>MOLECULE
M8P
   47    50     1     0     0
SMALL
bcc


@<TRIPOS>ATOM
      1 C11          0.0000     0.0000     0.0000 ca         1 M8P      -0.014000
      2 C12          1.4030     0.0000     0.0000 ca         1 M8P      -0.059000
      3 C13          2.1300     0.0000     1.2040 ca         1 M8P      -0.075000
      4 C14          3.4900    -0.0020     1.1700 ca         1 M8P      -0.107000
      5 C15          4.1770    -0.0030    -0.0420 ca         1 M8P      -0.087000
      6 C16          3.5070    -0.0030    -1.2270 ca         1 M8P      -0.098000
      7 C17          2.1020    -0.0020    -1.2340 ca         1 M8P      -0.012000
      8 C18          1.3810    -0.0030    -2.4420 ca         1 M8P      -0.108000
      9 C19          0.0240    -0.0020    -2.4230 ca         1 M8P      -0.057000
     10 C10         -0.6800    -0.0010    -1.2060 ca         1 M8P      -0.153600
     11 C9          -2.1600    -0.0000    -1.2140 c          1 M8P       0.736100
     12 O8          -2.7750     0.0010    -0.1620 o          1 M8P      -0.604100
     13 N2          -2.8240    -0.0010    -2.3770 ne         1 M8P      -0.634100
     14 C8          -4.1480     0.0000    -2.3840 c2         1 M8P       0.425800
     15 S1          -5.1610     0.0010    -0.9920 ss         1 M8P      -0.160300
     16 N1          -4.9360     0.0050    -3.4920 ns         1 M8P       0.000600
     17 C7          -6.2560     0.0050    -3.3740 c          1 M8P       0.595500
     18 O7          -7.0150     0.0100    -4.3210 o          1 M8P      -0.607500
     19 C1          -6.7150     0.0010    -1.9390 c3         1 M8P       0.121900
     20 O5          -7.4680     1.1710    -1.6440 os         1 M8P      -0.331600
     21 C5          -8.6980     1.2750    -2.3660 c3         1 M8P       0.126100
     22 C6          -9.4160     2.5660    -1.9660 c3         1 M8P       0.229400
     23 O6          -8.6380     3.6910    -2.3810 oh         1 M8P      -0.583800
     24 C4          -9.5860     0.0740    -2.0320 c3         1 M8P       0.149100
     25 O4         -10.7980     0.1520    -2.7860 oh         1 M8P      -0.575800
     26 C3          -8.8430    -1.2170    -2.3920 c3         1 M8P       0.126100
     27 O3          -9.6400    -2.3450    -2.0280 oh         1 M8P      -0.587800
     28 C2          -7.5160    -1.2580    -1.6250 c3         1 M8P       0.185100
     29 O2          -6.7710    -2.4090    -2.0240 oh         1 M8P      -0.585800
     30 H11         -0.5470     0.0010     0.9350 ha         1 M8P       0.126000
     31 H13          1.6090     0.0010     2.1540 ha         1 M8P       0.108000
     32 H14          4.0470    -0.0010     2.0990 ha         1 M8P       0.102000
     33 H15          5.2600    -0.0040    -0.0420 ha         1 M8P       0.101000
     34 H16          4.0550    -0.0040    -2.1620 ha         1 M8P       0.107000
     35 H18          1.9090    -0.0040    -3.3880 ha         1 M8P       0.108000
     36 H19         -0.5240    -0.0030    -3.3570 ha         1 M8P       0.120000
     37 H1          -4.5170     0.0080    -4.4010 hn         1 M8P       0.190500
     38 H2          -7.7160    -1.3010    -0.5610 h1         1 M8P       0.037700
     39 H5          -8.4910     1.2850    -3.4290 h1         1 M8P       0.067700
     40 H61C       -10.3870     2.6020    -2.4450 h1         1 M8P      -0.001300
     41 H62C        -9.5420     2.5910    -0.8910 h1         1 M8P      -0.001300
     42 H4          -9.8120     0.0760    -0.9730 h1         1 M8P       0.018700
     43 H6          -9.1400     4.4810    -2.2620 ho         1 M8P       0.390000
     44 HA         -11.5320    -0.0060    -2.2160 ho         1 M8P       0.397000
     45 H3          -8.6450    -1.2350    -3.4570 h1         1 M8P       0.057700
     46 HB          -9.9130    -2.8010    -2.8070 ho         1 M8P       0.405000
     47 HC          -6.8920    -3.0970    -1.3900 ho         1 M8P       0.413000
@<TRIPOS>BOND
     1     1     2 ar  
     2     1    10 ar  
     3     1    30 1   
     4     2     3 ar  
     5     2     7 ar  
     6     3     4 ar  
     7     3    31 1   
     8     4     5 ar  
     9     4    32 1   
    10     5     6 ar  
    11     5    33 1   
    12     6     7 ar  
    13     6    34 1   
    14     7     8 ar  
    15     8     9 ar  
    16     8    35 1   
    17     9    10 ar  
    18     9    36 1   
    19    10    11 1   
    20    11    12 2   
    21    11    13 1   
    22    13    14 2   
    23    14    15 1   
    24    14    16 1   
    25    15    19 1   
    26    16    17 1   
    27    16    37 1   
    28    17    18 2   
    29    17    19 1   
    30    19    20 1   
    31    19    28 1   
    32    20    21 1   
    33    21    22 1   
    34    21    24 1   
    35    21    39 1   
    36    22    23 1   
    37    22    40 1   
    38    22    41 1   
    39    23    43 1   
    40    24    25 1   
    41    24    26 1   
    42    24    42 1   
    43    25    44 1   
    44    26    27 1   
    45    26    28 1   
    46    26    45 1   
    47    27    46 1   
    48    28    29 1   
    49    28    38 1   
    50    29    47 1   
@<TRIPOS>SUBSTRUCTURE
     1 M8P         1 TEMP              0 ****  ****    0 ROOT
