@<TRIPOS>MOLECULE
molecule
   47    50     1     0     0
SMALL
bcc


@<TRIPOS>ATOM
      1 C11          0.0000     0.0000     0.0000 ca         1 M8P      -0.048000
      2 C12          1.4030     0.0000     0.0000 ca         1 M8P      -0.056000
      3 C13          2.1300     0.0000     1.2040 ca         1 M8P      -0.104000
      4 C14          3.4900    -0.0020     1.1700 ca         1 M8P      -0.133000
      5 C15          4.1770    -0.0030    -0.0420 ca         1 M8P      -0.114000
      6 C16          3.5070    -0.0030    -1.2270 ca         1 M8P      -0.125000
      7 C17          2.1020    -0.0020    -1.2340 ca         1 M8P      -0.013000
      8 C18          1.3810    -0.0030    -2.4420 ca         1 M8P      -0.136000
      9 C19          0.0240    -0.0020    -2.4230 ca         1 M8P      -0.081000
     10 C10         -0.6800    -0.0010    -1.2060 ca         1 M8P      -0.130600
     11 C9          -2.1600    -0.0000    -1.2140 c          1 M8P       0.724100
     12 O8          -2.7750     0.0010    -0.1620 o          1 M8P      -0.600100
     13 N2          -2.8240    -0.0010    -2.3770 ne         1 M8P      -0.744100
     14 C8          -4.1480     0.0000    -2.3840 c2         1 M8P       0.576800
     15 S1          -5.1610     0.0010    -0.9920 ss         1 M8P      -0.017300
     16 N1          -4.9360     0.0050    -3.4920 ns         1 M8P      -0.456400
     17 C7          -6.2560     0.0050    -3.3740 c          1 M8P       0.705500
     18 O7          -7.0150     0.0100    -4.3210 o          1 M8P      -0.573500
     19 C1          -6.7150     0.0010    -1.9390 c3         1 M8P       0.076900
     20 O5          -7.4680     1.1710    -1.6440 os         1 M8P      -0.351600
     21 C5          -8.6980     1.2750    -2.3660 c3         1 M8P       0.119100
     22 C6          -9.4160     2.5660    -1.9660 c3         1 M8P       0.153400
     23 O6          -8.6380     3.6910    -2.3810 oh         1 M8P      -0.599800
     24 C4          -9.5860     0.0740    -2.0320 c3         1 M8P       0.109100
     25 O4         -10.7980     0.1520    -2.7860 oh         1 M8P      -0.595800
     26 C3          -8.8430    -1.2170    -2.3920 c3         1 M8P       0.104100
     27 O3          -9.6400    -2.3450    -2.0280 oh         1 M8P      -0.607800
     28 C2          -7.5160    -1.2580    -1.6250 c3         1 M8P       0.142100
     29 O2          -6.7710    -2.4090    -2.0240 oh         1 M8P      -0.598800
     30 H11         -0.5470     0.0010     0.9350 ha         1 M8P       0.156000
     31 H13          1.6090     0.0010     2.1540 ha         1 M8P       0.136000
     32 H14          4.0470    -0.0010     2.0990 ha         1 M8P       0.130000
     33 H15          5.2600    -0.0040    -0.0420 ha         1 M8P       0.129000
     34 H16          4.0550    -0.0040    -2.1620 ha         1 M8P       0.134000
     35 H18          1.9090    -0.0040    -3.3880 ha         1 M8P       0.136000
     36 H19         -0.5240    -0.0030    -3.3570 ha         1 M8P       0.151000
     37 H1          -4.5170     0.0080    -4.4010 hn         1 M8P       0.355500
     38 H2          -7.7160    -1.3010    -0.5610 h1         1 M8P       0.071700
     39 H5          -8.4910     1.2850    -3.4290 h1         1 M8P       0.096700
     40 H61C       -10.3870     2.6020    -2.4450 h1         1 M8P       0.037700
     41 H62C        -9.5420     2.5910    -0.8910 h1         1 M8P       0.037700
     42 H4          -9.8120     0.0760    -0.9730 h1         1 M8P       0.051700
     43 H6          -9.1400     4.4810    -2.2620 ho         1 M8P       0.405000
     44 HA         -11.5320    -0.0060    -2.2160 ho         1 M8P       0.412000
     45 H3          -8.6450    -1.2350    -3.4570 h1         1 M8P       0.088700
     46 HB          -9.9130    -2.8010    -2.8070 ho         1 M8P       0.419000
     47 HC          -6.8920    -3.0970    -1.3900 ho         1 M8P       0.426000
@<TRIPOS>BOND
     1     1     2 ar
     2     1    10 ar
     3     2     3 ar
     4     2     7 ar
     5     3     4 ar
     6     4     5 ar
     7     5     6 ar
     8     6     7 ar
     9     7     8 ar
    10     8     9 ar
    11     9    10 ar
    12    10    11 1
    13    11    12 2
    14    11    13 1
    15    13    14 2
    16    14    15 1
    17    14    16 1
    18    15    19 1
    19    16    17 1
    20    17    18 2
    21    17    19 1
    22    19    20 1
    23    19    28 1
    24    20    21 1
    25    21    22 1
    26    21    24 1
    27    22    23 1
    28    24    25 1
    29    24    26 1
    30    26    27 1
    31    26    28 1
    32    28    29 1
    33     1    30 1
    34     3    31 1
    35     4    32 1
    36     5    33 1
    37     6    34 1
    38     8    35 1
    39     9    36 1
    40    16    37 1
    41    28    38 1
    42    21    39 1
    43    22    40 1
    44    22    41 1
    45    24    42 1
    46    23    43 1
    47    25    44 1
    48    26    45 1
    49    27    46 1
    50    29    47 1
@<TRIPOS>SUBSTRUCTURE
     1 M8P         1 TEMP              0 ****  ****    0 ROOT
