@<TRIPOS>MOLECULE
M8Q
   35    36     1     0     0
SMALL
bcc


@<TRIPOS>ATOM
      1 N            0.0000     0.0000     0.0000 n7         1 M8Q      -0.590100
      2 C           -0.4120    -0.9690    -2.5350 c3         1 M8Q       0.006700
      3 O            4.3020    -2.6410     8.0210 o          1 M8Q      -0.882800
      4 C1           1.4650     0.0000     0.0000 c3         1 M8Q       0.292100
      5 C10          3.3730    -4.8890     5.3860 ca         1 M8Q      -0.053000
      6 C11          3.6070    -3.6830     6.0510 ca         1 M8Q      -0.105600
      7 C12          4.1000    -3.6900     7.4440 c          1 M8Q       0.974200
      8 C13          3.3740    -2.4740     5.3980 ca         1 M8Q      -0.063000
      9 C14          2.1970    -1.1960     2.0700 ca         1 M8Q      -0.107000
     10 C2           1.9670     0.0000     1.4200 ca         1 M8Q      -0.130300
     11 C3           2.1980     1.2000     2.0710 ca         1 M8Q      -0.106000
     12 C4           2.6600     1.2060     3.3750 ca         1 M8Q      -0.104000
     13 C5           2.8920     0.0160     4.0340 ca         1 M8Q      -0.097000
     14 C6           2.6610    -1.1940     3.3840 cp         1 M8Q       0.013000
     15 C7           2.9100    -2.4770     4.0870 cp         1 M8Q      -0.094000
     16 C8           2.6810    -3.6880     3.4330 ca         1 M8Q      -0.123000
     17 C9           2.9130    -4.8830     4.0840 ca         1 M8Q      -0.145000
     18 O1           4.3250    -4.8590     8.0740 o          1 M8Q      -0.882800
     19 O2          -2.1970     0.2970    -1.0070 o          1 M8Q      -0.591800
     20 O3          -0.2540     1.5960    -1.8190 o          1 M8Q      -0.591800
     21 S           -0.8290     0.3710    -1.3860 s6         1 M8Q       0.948900
     22 H           -0.5130    -1.9220    -2.0300 h1         1 M8Q       0.060033
     23 H2           0.6090    -0.8470    -2.8770 h1         1 M8Q       0.060033
     24 H5           1.8260     0.8850    -0.5110 h1         1 M8Q       0.009700
     25 H4           1.8260    -0.8850    -0.5110 h1         1 M8Q       0.009700
     26 H11          3.5530    -5.8300     5.8920 ha         1 M8Q       0.129000
     27 H12          3.5540    -1.5370     5.9090 ha         1 M8Q       0.127000
     28 H13          2.0150    -2.1340     1.5600 ha         1 M8Q       0.113000
     29 H6           2.0170     2.1360     1.5580 ha         1 M8Q       0.102000
     30 H7           2.8390     2.1480     3.8800 ha         1 M8Q       0.098000
     31 H8           3.2530     0.0220     5.0550 ha         1 M8Q       0.130000
     32 H9           2.3200    -3.6910     2.4110 ha         1 M8Q       0.088000
     33 H10          2.7330    -5.8200     3.5720 ha         1 M8Q       0.085000
     34 H1          -1.0830    -0.9370    -3.3850 h1         1 M8Q       0.060033
     35 H3          -0.5000    -0.2170     0.8390 hn         1 M8Q       0.362800
@<TRIPOS>BOND
     1     1     4 1   
     2     1    21 1   
     3     1    35 1   
     4     2    21 1   
     5     2    22 1   
     6     2    23 1   
     7     2    34 1   
     8     3     7 1   
     9     4    10 1   
    10     4    24 1   
    11     4    25 1   
    12     5     6 ar  
    13     5    17 ar  
    14     5    26 1   
    15     6     7 1   
    16     6     8 ar  
    17     7    18 1   
    18     8    15 ar  
    19     8    27 1   
    20     9    10 ar  
    21     9    14 ar  
    22     9    28 1   
    23    10    11 ar  
    24    11    12 ar  
    25    11    29 1   
    26    12    13 ar  
    27    12    30 1   
    28    13    14 ar  
    29    13    31 1   
    30    14    15 1   
    31    15    16 ar  
    32    16    17 ar  
    33    16    32 1   
    34    17    33 1   
    35    19    21 2   
    36    20    21 2   
@<TRIPOS>SUBSTRUCTURE
     1 M8Q         1 TEMP              0 ****  ****    0 ROOT
