@<TRIPOS>MOLECULE
molecule
   35    36     1     0     0
SMALL
bcc


@<TRIPOS>ATOM
      1 N            0.0000     0.0000     0.0000 n7         1 M8Q      -0.908100
      2 C           -0.4120    -0.9690    -2.5350 c3         1 M8Q      -0.252300
      3 O            4.3020    -2.6410     8.0210 o          1 M8Q      -0.834800
      4 C1           1.4650     0.0000     0.0000 c3         1 M8Q       0.284100
      5 C10          3.3730    -4.8890     5.3860 ca         1 M8Q      -0.081000
      6 C11          3.6070    -3.6830     6.0510 ca         1 M8Q      -0.105600
      7 C12          4.1000    -3.6900     7.4440 c          1 M8Q       0.882200
      8 C13          3.3740    -2.4740     5.3980 ca         1 M8Q      -0.085000
      9 C14          2.1970    -1.1960     2.0700 ca         1 M8Q      -0.124000
     10 C2           1.9670     0.0000     1.4200 ca         1 M8Q      -0.117300
     11 C3           2.1980     1.2000     2.0710 ca         1 M8Q      -0.131000
     12 C4           2.6600     1.2060     3.3750 ca         1 M8Q      -0.132000
     13 C5           2.8920     0.0160     4.0340 ca         1 M8Q      -0.114000
     14 C6           2.6610    -1.1940     3.3840 cp         1 M8Q       0.001000
     15 C7           2.9100    -2.4770     4.0870 cp         1 M8Q      -0.090000
     16 C8           2.6810    -3.6880     3.4330 ca         1 M8Q      -0.138000
     17 C9           2.9130    -4.8830     4.0840 ca         1 M8Q      -0.166000
     18 O1           4.3250    -4.8590     8.0740 o          1 M8Q      -0.834800
     19 O2          -2.1970     0.2970    -1.0070 o          1 M8Q      -0.635800
     20 O3          -0.2540     1.5960    -1.8190 o          1 M8Q      -0.635800
     21 S           -0.8290     0.3710    -1.3860 s6         1 M8Q       1.324900
     22 H           -0.5130    -1.9220    -2.0300 h1         1 M8Q       0.094700
     23 H2           0.6090    -0.8470    -2.8770 h1         1 M8Q       0.094700
     24 H5           1.8260     0.8850    -0.5110 h1         1 M8Q       0.044200
     25 H4           1.8260    -0.8850    -0.5110 h1         1 M8Q       0.044200
     26 H11          3.5530    -5.8300     5.8920 ha         1 M8Q       0.156000
     27 H12          3.5540    -1.5370     5.9090 ha         1 M8Q       0.148000
     28 H13          2.0150    -2.1340     1.5600 ha         1 M8Q       0.132000
     29 H6           2.0170     2.1360     1.5580 ha         1 M8Q       0.125000
     30 H7           2.8390     2.1480     3.8800 ha         1 M8Q       0.126000
     31 H8           3.2530     0.0220     5.0550 ha         1 M8Q       0.154000
     32 H9           2.3200    -3.6910     2.4110 ha         1 M8Q       0.103000
     33 H10          2.7330    -5.8200     3.5720 ha         1 M8Q       0.107000
     34 H1          -1.0830    -0.9370    -3.3850 h1         1 M8Q       0.094700
     35 H3          -0.5000    -0.2170     0.8390 hn         1 M8Q       0.465800
@<TRIPOS>BOND
     1     1     4 1
     2     1    21 1
     3     2    21 1
     4     3     7 1
     5     4    10 1
     6     5     6 ar
     7     5    17 ar
     8     6     7 1
     9     6     8 ar
    10     7    18 1
    11     8    15 ar
    12     9    10 ar
    13     9    14 ar
    14    10    11 ar
    15    11    12 ar
    16    12    13 ar
    17    13    14 ar
    18    14    15 1
    19    15    16 ar
    20    16    17 ar
    21    19    21 2
    22    20    21 2
    23     1    35 1
    24     2    22 1
    25     2    23 1
    26     2    34 1
    27     4    24 1
    28     4    25 1
    29     5    26 1
    30     8    27 1
    31     9    28 1
    32    11    29 1
    33    12    30 1
    34    13    31 1
    35    16    32 1
    36    17    33 1
@<TRIPOS>SUBSTRUCTURE
     1 M8Q         1 TEMP              0 ****  ****    0 ROOT
