@<TRIPOS>MOLECULE
molecule
   98   100     1     0     0
SMALL
bcc


@<TRIPOS>ATOM
      1 C1           0.0000     0.0000     0.0000 c3         1 M8Y       0.091800
      2 N1           2.1700     0.0000     1.1980 ns         1 M8Y      -0.549900
      3 O1          -0.4770    -0.8390     1.0540 oh         1 M8Y      -0.592800
      4 C2           1.5080     0.0000     0.0000 c          1 M8Y       0.639100
      5 N2          -2.0710     3.1980     2.0030 n3         1 M8Y      -0.437600
      6 O2           2.1220    -0.0000    -1.0450 o          1 M8Y      -0.580100
      7 C3           3.6500    -0.0300     1.0710 c3         1 M8Y       0.033700
      8 N3          -2.3600     2.5080     3.1450 ns         1 M8Y      -0.464300
      9 C4           4.2810    -0.2890     2.4400 c3         1 M8Y      -0.080700
     10 N4          -4.2860    -0.5120     3.9950 ns         1 M8Y      -0.552900
     11 O4          -5.3950    -0.3020     5.9070 o          1 M8Y      -0.624000
     12 C5           5.7960    -0.4340     2.2840 c3         1 M8Y      -0.094100
     13 N5           4.9170    -0.8960    -0.8720 ns         1 M8Y      -0.574900
     14 O5          -6.0680    -1.9160     4.5420 os         1 M8Y      -0.435900
     15 C7          -0.5110     1.4260     0.2110 c3         1 M8Y      -0.075400
     16 C8          -0.0090     1.9560     1.5550 c3         1 M8Y      -0.085400
     17 C9          -0.6190     3.3330     1.8210 c3         1 M8Y       0.143800
     18 C10         -2.7260     4.5140     2.0030 c3         1 M8Y       0.188100
     19 C11         -4.2210     4.3300     1.9690 ca         1 M8Y      -0.071300
     20 C12         -2.9850     1.3160     3.0720 c          1 M8Y       0.672100
     21 C13         -3.4020     0.6050     4.3340 c3         1 M8Y       0.075700
     22 C14         -2.1610     0.0730     5.0530 c3         1 M8Y      -0.083000
     23 C15         -1.3800    -0.8450     4.1110 c3         1 M8Y      -0.089767
     24 C16         -1.2720     1.2460     5.4730 c3         1 M8Y      -0.089767
     25 C17         -2.5870    -0.7130     6.2940 c3         1 M8Y      -0.089767
     26 C19         -7.0890    -2.2670     5.5140 c3         1 M8Y       0.159700
     27 C20         -4.9320     4.2330     3.1500 ca         1 M8Y      -0.110500
     28 C21         -6.3040     4.0640     3.1190 ca         1 M8Y      -0.100500
     29 C22         -6.9650     3.9940     1.9060 ca         1 M8Y      -0.012900
     30 C23         -6.2520     4.0920     0.7240 ca         1 M8Y      -0.100500
     31 C24         -4.8820     4.2640     0.7560 ca         1 M8Y      -0.110500
     32 C25         -0.5000    -0.5330    -1.3460 c3         1 M8Y      -0.052100
     33 C26          0.6590    -1.1400    -2.0950 ca         1 M8Y      -0.096300
     34 C27          0.8920    -2.5010    -2.0230 ca         1 M8Y      -0.050000
     35 C28          1.9600    -3.0570    -2.7000 ca         1 M8Y      -0.141000
     36 C29          2.7970    -2.2520    -3.4520 ca         1 M8Y      -0.127300
     37 C30          2.5590    -0.8930    -3.5310 ca         1 M8Y      -0.141000
     38 C31          1.4900    -0.3370    -2.8530 ca         1 M8Y      -0.050000
     39 C32          3.9690    -2.8580    -4.1780 c3         1 M8Y      -0.000900
     40 C33          5.1080    -1.8730    -4.2100 c2         1 M8Y      -0.319200
     41 C34          4.0180    -1.1420     0.1230 c          1 M8Y       0.666100
     42 C35          3.9750     0.8840     3.3740 c3         1 M8Y      -0.094100
     43 C36          5.6820    -1.4910    -3.0970 c2         1 M8Y      -0.264200
     44 C37          5.2060    -2.0310    -1.7740 c3         1 M8Y       0.326200
     45 HN1          1.7450     0.4120     2.0050 hn         1 M8Y       0.332500
     46 HO1         -0.6990    -1.6860     0.7050 ho         1 M8Y       0.416000
     47 H3           4.0030     0.9170     0.6790 h1         1 M8Y       0.054700
     48 HN3         -2.1510     2.9090     4.0370 hn         1 M8Y       0.302500
     49 H4           3.8730    -1.2010     2.8590 hc         1 M8Y       0.080700
     50 HN4         -4.2020    -0.9650     3.1070 hn         1 M8Y       0.347500
     51 H5           6.1700     0.3530     1.6400 hc         1 M8Y       0.038533
     52 H5A          6.0240    -1.3980     1.8460 hc         1 M8Y       0.038533
     53 H5B          6.2680    -0.3590     3.2570 hc         1 M8Y       0.038533
     54 HN5          5.5800    -0.1530    -0.7740 hn         1 M8Y       0.322500
     55 H7          -1.5940     1.4260     0.2050 hc         1 M8Y       0.076200
     56 H7A         -0.1460     2.0620    -0.5870 hc         1 M8Y       0.076200
     57 H8           1.0710     2.0390     1.5290 hc         1 M8Y       0.052200
     58 H8A         -0.3000     1.2730     2.3440 hc         1 M8Y       0.052200
     59 H9          -0.4190     3.9860     0.9790 h1         1 M8Y       0.040700
     60 H9A         -0.1800     3.7550     2.7170 h1         1 M8Y       0.040700
     61 H10         -2.4110     5.0750     1.1320 h1         1 M8Y       0.048700
     62 H10A        -2.4490     5.0550     2.9000 h1         1 M8Y       0.048700
     63 H13         -3.9260     1.2970     4.9820 h1         1 M8Y       0.093700
     64 H15         -0.4610    -1.1590     4.5910 hc         1 M8Y       0.043033
     65 H15A        -1.1460    -0.3120     3.1980 hc         1 M8Y       0.043033
     66 H15B        -1.9800    -1.7160     3.8760 hc         1 M8Y       0.043033
     67 H16         -0.6450     0.9440     6.3030 hc         1 M8Y       0.043033
     68 H16A        -1.8940     2.0800     5.7760 hc         1 M8Y       0.043033
     69 H16B        -0.6490     1.5440     4.6390 hc         1 M8Y       0.043033
     70 H17         -3.0550    -1.6420     5.9890 hc         1 M8Y       0.043033
     71 H17A        -3.2930    -0.1250     6.8690 hc         1 M8Y       0.043033
     72 H17B        -1.7170    -0.9290     6.9010 hc         1 M8Y       0.043033
     73 H19         -6.6160    -2.5930     6.4320 h1         1 M8Y       0.049700
     74 H19A        -7.7090    -1.4010     5.7140 h1         1 M8Y       0.049700
     75 H19B        -7.7030    -3.0670     5.1190 h1         1 M8Y       0.049700
     76 H20         -4.4150     4.2880     4.1010 ha         1 M8Y       0.134000
     77 H21         -6.8610     3.9880     4.0450 ha         1 M8Y       0.146000
     78 H23         -6.7700     4.0400    -0.2260 ha         1 M8Y       0.146000
     79 H24         -4.3240     4.3400    -0.1690 ha         1 M8Y       0.134000
     80 H25         -1.2590    -1.2870    -1.1780 hc         1 M8Y       0.064700
     81 H25A        -0.9190     0.2810    -1.9250 hc         1 M8Y       0.064700
     82 H27          0.2120    -3.1370    -1.4690 ha         1 M8Y       0.128000
     83 H28          2.1090    -4.1300    -2.6880 ha         1 M8Y       0.142500
     84 H30          3.1730    -0.2740    -4.1740 ha         1 M8Y       0.142500
     85 H31          1.3030     0.7290    -2.9170 ha         1 M8Y       0.128000
     86 H32          4.2850    -3.7580    -3.6640 hc         1 M8Y       0.052200
     87 H32A         3.6770    -3.1050    -5.1910 hc         1 M8Y       0.052200
     88 H33          4.0910    -1.6220    -3.9370 ha         1 M8Y       0.246000
     89 H35          3.0150     0.7250     3.8500 hc         1 M8Y       0.038533
     90 H35A         4.7460     0.9530     4.1310 hc         1 M8Y       0.038533
     91 H35B         3.9470     1.8030     2.8010 hc         1 M8Y       0.038533
     92 H36          5.9230    -2.4760    -2.7170 ha         1 M8Y       0.020000
     93 H37          4.3060    -2.6150    -1.9230 h1         1 M8Y       0.056200
     94 H37A         5.9760    -2.6560    -1.3380 h1         1 M8Y       0.056200
     95 O6           3.5210    -2.2410     0.2430 o          1 M8Y      -0.604100
     96 C18         -5.2550    -0.8890     4.8530 c          1 M8Y       0.753100
     97 Br1         -8.8410     3.7640     1.8630 br         1 M8Y      -0.094100
     98 O3          -3.2130     0.8160     1.9910 o          1 M8Y      -0.573100
@<TRIPOS>BOND
     1     1     3 1
     2     1     4 1
     3     1    15 1
     4     1    32 1
     5     2     4 1
     6     2     7 1
     7    97    29 1
     8     4     6 2
     9     5     8 1
    10     5    17 1
    11     5    18 1
    12     7     9 1
    13     7    41 1
    14     8    20 1
    15    98    20 2
    16     9    12 1
    17     9    42 1
    18    10    21 1
    19    10    96 1
    20    11    96 2
    21    13    41 1
    22    13    44 1
    23    14    96 1
    24    14    26 1
    25    95    41 2
    26    15    16 1
    27    16    17 1
    28    18    19 1
    29    19    27 ar
    30    19    31 ar
    31    20    21 1
    32    21    22 1
    33    22    23 1
    34    22    24 1
    35    22    25 1
    36    27    28 ar
    37    28    29 ar
    38    29    30 ar
    39    30    31 ar
    40    32    33 1
    41    33    34 ar
    42    33    38 ar
    43    34    35 ar
    44    35    36 ar
    45    36    37 ar
    46    36    39 1
    47    37    38 ar
    48    39    40 1
    49    40    43 2
    50    43    44 1
    51     2    45 1
    52     3    46 1
    53     7    47 1
    54     8    48 1
    55     9    49 1
    56    10    50 1
    57    12    51 1
    58    12    52 1
    59    12    53 1
    60    13    54 1
    61    15    55 1
    62    15    56 1
    63    16    57 1
    64    16    58 1
    65    17    59 1
    66    17    60 1
    67    18    61 1
    68    18    62 1
    69    21    63 1
    70    23    64 1
    71    23    65 1
    72    23    66 1
    73    24    67 1
    74    24    68 1
    75    24    69 1
    76    25    70 1
    77    25    71 1
    78    25    72 1
    79    26    73 1
    80    26    74 1
    81    26    75 1
    82    27    76 1
    83    28    77 1
    84    30    78 1
    85    31    79 1
    86    32    80 1
    87    32    81 1
    88    34    82 1
    89    35    83 1
    90    37    84 1
    91    38    85 1
    92    39    86 1
    93    39    87 1
    94    40    88 1
    95    42    89 1
    96    42    90 1
    97    42    91 1
    98    43    92 1
    99    44    93 1
   100    44    94 1
@<TRIPOS>SUBSTRUCTURE
     1 M8Y         1 TEMP              0 ****  ****    0 ROOT
