@<TRIPOS>MOLECULE
M8Y
   98   100     1     0     0
SMALL
bcc


@<TRIPOS>ATOM
      1 C1           0.0000     0.0000     0.0000 c3         1 M8Y       0.109800
      2 N1           2.1700     0.0000     1.1980 ns         1 M8Y      -0.191900
      3 O1          -0.4770    -0.8390     1.0540 oh         1 M8Y      -0.593800
      4 C2           1.5080     0.0000     0.0000 c          1 M8Y       0.558100
      5 N2          -2.0710     3.1980     2.0030 n3         1 M8Y      -0.358600
      6 O2           2.1220    -0.0000    -1.0450 o          1 M8Y      -0.605100
      7 C3           3.6500    -0.0300     1.0710 c3         1 M8Y      -0.057300
      8 N3          -2.3600     2.5080     3.1450 ns         1 M8Y      -0.146300
      9 C4           4.2810    -0.2890     2.4400 c3         1 M8Y      -0.055700
     10 N4          -4.2860    -0.5120     3.9950 ns         1 M8Y      -0.145900
     11 O4          -5.3950    -0.3020     5.9070 o          1 M8Y      -0.674000
     12 C5           5.7960    -0.4340     2.2840 c3         1 M8Y       0.000400
     13 N5           4.9170    -0.8960    -0.8720 ns         1 M8Y      -0.172900
     14 O5          -6.0680    -1.9160     4.5420 os         1 M8Y      -0.422900
     15 C7          -0.5110     1.4260     0.2110 c3         1 M8Y      -0.036400
     16 C8          -0.0090     1.9560     1.5550 c3         1 M8Y      -0.054400
     17 C9          -0.6190     3.3330     1.8210 c3         1 M8Y       0.140800
     18 C10         -2.7260     4.5140     2.0030 c3         1 M8Y       0.196100
     19 C11         -4.2210     4.3300     1.9690 ca         1 M8Y      -0.093300
     20 C12         -2.9850     1.3160     3.0720 c          1 M8Y       0.590100
     21 C13         -3.4020     0.6050     4.3340 c3         1 M8Y      -0.039300
     22 C14         -2.1610     0.0730     5.0530 c3         1 M8Y      -0.077000
     23 C15         -1.3800    -0.8450     4.1110 c3         1 M8Y      -0.015100
     24 C16         -1.2720     1.2460     5.4730 c3         1 M8Y      -0.015100
     25 C17         -2.5870    -0.7130     6.2940 c3         1 M8Y      -0.015100
     26 C19         -7.0890    -2.2670     5.5140 c3         1 M8Y       0.286700
     27 C20         -4.9320     4.2330     3.1500 ca         1 M8Y      -0.081500
     28 C21         -6.3040     4.0640     3.1190 ca         1 M8Y      -0.079000
     29 C22         -6.9650     3.9940     1.9060 ca         1 M8Y       0.039100
     30 C23         -6.2520     4.0920     0.7240 ca         1 M8Y      -0.079000
     31 C24         -4.8820     4.2640     0.7560 ca         1 M8Y      -0.081500
     32 C25         -0.5000    -0.5330    -1.3460 c3         1 M8Y       0.011900
     33 C26          0.6590    -1.1400    -2.0950 ca         1 M8Y      -0.122300
     34 C27          0.8920    -2.5010    -2.0230 ca         1 M8Y      -0.027500
     35 C28          1.9600    -3.0570    -2.7000 ca         1 M8Y      -0.126500
     36 C29          2.7970    -2.2520    -3.4520 ca         1 M8Y      -0.079300
     37 C30          2.5590    -0.8930    -3.5310 ca         1 M8Y      -0.126500
     38 C31          1.4900    -0.3370    -2.8530 ca         1 M8Y      -0.027500
     39 C32          3.9690    -2.8580    -4.1780 c3         1 M8Y       0.071100
     40 C33          5.1080    -1.8730    -4.2100 c2         1 M8Y      -0.131200
     41 C34          4.0180    -1.1420     0.1230 c          1 M8Y       0.579100
     42 C35          3.9750     0.8840     3.3740 c3         1 M8Y       0.000400
     43 C36          5.6820    -1.4910    -3.0970 c2         1 M8Y      -0.172200
     44 C37          5.2060    -2.0310    -1.7740 c3         1 M8Y       0.048200
     45 HN1          1.7300    -0.3790     2.0130 hn         1 M8Y       0.199500
     46 HO1         -0.7280    -1.6760     0.7000 ho         1 M8Y       0.409000
     47 H3           4.0030     0.9170     0.6790 h1         1 M8Y       0.049700
     48 HN3         -2.1470     2.9070     4.0370 hn         1 M8Y       0.176500
     49 H4           3.8730    -1.2010     2.8590 hc         1 M8Y       0.045700
     50 HN4         -4.2030    -0.9640     3.1060 hn         1 M8Y       0.201500
     51 H5           6.1770     0.3830     1.6840 hc         1 M8Y       0.007200
     52 H5A          6.2640    -0.4130     3.2610 hc         1 M8Y       0.007200
     53 H5B          6.0210    -1.3750     1.7970 hc         1 M8Y       0.007200
     54 HN5          5.5800    -0.1530    -0.7740 hn         1 M8Y       0.169500
     55 H7          -0.1460     2.0620    -0.5870 hc         1 M8Y       0.046700
     56 H7A         -1.5940     1.4260     0.2050 hc         1 M8Y       0.046700
     57 H8           1.0710     2.0390     1.5290 hc         1 M8Y       0.034200
     58 H8A         -0.3000     1.2730     2.3440 hc         1 M8Y       0.034200
     59 H9          -0.4190     3.9860     0.9790 h1         1 M8Y       0.012700
     60 H9A         -0.1800     3.7550     2.7170 h1         1 M8Y       0.012700
     61 H10         -2.4110     5.0750     1.1320 h1         1 M8Y       0.018700
     62 H10A        -2.4490     5.0550     2.9000 h1         1 M8Y       0.018700
     63 H13         -3.9260     1.2970     4.9820 h1         1 M8Y       0.070700
     64 H15         -1.9750    -1.7220     3.8860 hc         1 M8Y       0.015922
     65 H15A        -0.4550    -1.1490     4.5860 hc         1 M8Y       0.015922
     66 H15B        -1.1570    -0.3160     3.1930 hc         1 M8Y       0.015922
     67 H16         -1.8930     2.0630     5.8210 hc         1 M8Y       0.015922
     68 H16A        -0.6110     0.9300     6.2710 hc         1 M8Y       0.015922
     69 H16B        -0.6840     1.5750     4.6250 hc         1 M8Y       0.015922
     70 H17         -3.2660    -0.1120     6.8870 hc         1 M8Y       0.015922
     71 H17A        -3.0850    -1.6260     5.9890 hc         1 M8Y       0.015922
     72 H17B        -1.7130    -0.9590     6.8840 hc         1 M8Y       0.015922
     73 H19         -7.7180    -1.4050     5.7030 h1         1 M8Y      -0.000300
     74 H19A        -6.6160    -2.5790     6.4370 h1         1 M8Y      -0.000300
     75 H19B        -7.6940    -3.0770     5.1250 h1         1 M8Y      -0.000300
     76 H20         -4.4150     4.2880     4.1010 ha         1 M8Y       0.107500
     77 H21         -6.8610     3.9880     4.0450 ha         1 M8Y       0.118500
     78 H23         -6.7700     4.0400    -0.2260 ha         1 M8Y       0.118500
     79 H24         -4.3240     4.3400    -0.1690 ha         1 M8Y       0.107500
     80 H25         -0.9190     0.2810    -1.9250 hc         1 M8Y       0.031200
     81 H25A        -1.2590    -1.2870    -1.1780 hc         1 M8Y       0.031200
     82 H27          0.2090    -3.1380    -1.4740 ha         1 M8Y       0.096500
     83 H28          2.1090    -4.1300    -2.6890 ha         1 M8Y       0.105000
     84 H30          3.1800    -0.2720    -4.1650 ha         1 M8Y       0.105000
     85 H31          1.3030     0.7290    -2.9170 ha         1 M8Y       0.096500
     86 H32          4.2850    -3.7580    -3.6650 hc         1 M8Y       0.022200
     87 H32A         3.6770    -3.1050    -5.1910 hc         1 M8Y       0.022200
     88 H33          5.4550    -1.4810    -5.1590 ha         1 M8Y       0.098000
     89 H35          4.7370     0.9430     4.1410 hc         1 M8Y       0.007200
     90 H35A         3.9630     1.8050     2.8040 hc         1 M8Y       0.007200
     91 H35B         3.0070     0.7330     3.8370 hc         1 M8Y       0.007200
     92 H36          6.5010    -0.7820    -3.1270 ha         1 M8Y       0.097000
     93 H37          4.3060    -2.6160    -1.9230 h1         1 M8Y       0.046700
     94 H37A         5.9760    -2.6560    -1.3380 h1         1 M8Y       0.046700
     95 O6           3.5210    -2.2410     0.2430 o          1 M8Y      -0.648100
     96 C18         -5.2550    -0.8890     4.8530 c          1 M8Y       0.680100
     97 Br1         -8.8410     3.7640     1.8630 br         1 M8Y      -0.128100
     98 O3          -3.2130     0.8160     1.9910 o          1 M8Y      -0.613100
@<TRIPOS>BOND
     1     1     3 1   
     2     1     4 1   
     3     1    15 1   
     4     1    32 1   
     5     2     4 1   
     6     2     7 1   
     7     2    45 1   
     8     3    46 1   
     9     4     6 2   
    10     5     8 1   
    11     5    17 1   
    12     5    18 1   
    13     7     9 1   
    14     7    41 1   
    15     7    47 1   
    16     8    20 1   
    17     8    48 1   
    18     9    12 1   
    19     9    42 1   
    20     9    49 1   
    21    10    21 1   
    22    10    50 1   
    23    10    96 1   
    24    11    96 2   
    25    12    51 1   
    26    12    52 1   
    27    12    53 1   
    28    13    41 1   
    29    13    44 1   
    30    13    54 1   
    31    14    26 1   
    32    14    96 1   
    33    15    16 1   
    34    15    55 1   
    35    15    56 1   
    36    16    17 1   
    37    16    57 1   
    38    16    58 1   
    39    17    59 1   
    40    17    60 1   
    41    18    19 1   
    42    18    61 1   
    43    18    62 1   
    44    19    27 ar  
    45    19    31 ar  
    46    20    21 1   
    47    20    98 2   
    48    21    22 1   
    49    21    63 1   
    50    22    23 1   
    51    22    24 1   
    52    22    25 1   
    53    23    64 1   
    54    23    65 1   
    55    23    66 1   
    56    24    67 1   
    57    24    68 1   
    58    24    69 1   
    59    25    70 1   
    60    25    71 1   
    61    25    72 1   
    62    26    73 1   
    63    26    74 1   
    64    26    75 1   
    65    27    28 ar  
    66    27    76 1   
    67    28    29 ar  
    68    28    77 1   
    69    29    30 ar  
    70    29    97 1   
    71    30    31 ar  
    72    30    78 1   
    73    31    79 1   
    74    32    33 1   
    75    32    80 1   
    76    32    81 1   
    77    33    34 ar  
    78    33    38 ar  
    79    34    35 ar  
    80    34    82 1   
    81    35    36 ar  
    82    35    83 1   
    83    36    37 ar  
    84    36    39 1   
    85    37    38 ar  
    86    37    84 1   
    87    38    85 1   
    88    39    40 1   
    89    39    86 1   
    90    39    87 1   
    91    40    43 2   
    92    40    88 1   
    93    41    95 2   
    94    42    89 1   
    95    42    90 1   
    96    42    91 1   
    97    43    44 1   
    98    43    92 1   
    99    44    93 1   
   100    44    94 1   
@<TRIPOS>SUBSTRUCTURE
     1 M8Y         1 TEMP              0 ****  ****    0 ROOT
