@<TRIPOS>MOLECULE
molecule
   44    46     1     0     0
SMALL
bcc


@<TRIPOS>ATOM
      1 C30          0.0000     0.0000     0.0000 c3         1 M94       0.148100
      2 N29          1.4690     0.0000     0.0000 n7         1 M94      -0.822200
      3 C28          1.9950     0.0000     1.3720 c3         1 M94       0.158800
      4 C27          3.5240     0.0000     1.3320 c3         1 M94      -0.037100
      5 C26          4.3100    -1.1970     3.3840 ca         1 M94      -0.153000
      6 C25          4.0640    -0.0000     2.7390 ca         1 M94      -0.048300
      7 C24          4.3120     1.1980     3.3840 ca         1 M94      -0.166000
      8 C23          4.8060     1.2010     4.6760 ca         1 M94      -0.088000
      9 C22          5.0550     0.0070     5.3240 ca         1 M94      -0.226000
     10 C21          4.8080    -1.1960     4.6790 ca         1 M94       0.144100
     11 O12          5.0510    -2.3720     5.3150 os         1 M94      -0.323900
     12 C11          5.5620    -2.2960     6.6480 c3         1 M94       0.186700
     13 C10          7.1660    -5.6230     7.4890 ca         1 M94       0.426600
     14 C09          6.9680    -4.3250     6.9910 ca         1 M94      -0.137300
     15 C08          5.7730    -3.7020     7.1810 ca         1 M94      -0.085300
     16 C07          4.7360    -4.3320     7.8670 ca         1 M94      -0.112000
     17 C06          4.8920    -5.5910     8.3640 ca         1 M94      -0.111000
     18 C05          6.1110    -6.2620     8.1850 ca         1 M94      -0.156300
     19 C04          6.3100    -7.5650     8.6860 ca         1 M94      -0.081000
     20 C03          7.5170    -8.1600     8.4760 ca         1 M94      -0.252300
     21 C02          8.5220    -7.4750     7.7790 ca         1 M94       0.689200
     22 N02          9.7460    -8.0940     7.5740 nv         1 M94      -1.085500
     23 N01          8.3290    -6.2600     7.3090 nb         1 M94      -0.702000
     24 H301        -0.3610    -0.8830     0.5130 h1         1 M94       0.030367
     25 H302        -0.3610     0.8860     0.5080 h1         1 M94       0.030367
     26 H303        -0.3610    -0.0030    -1.0210 h1         1 M94       0.030367
     27 H29          1.8030     0.8090    -0.4850 hn         1 M94       0.349800
     28 H281         1.6480    -0.8850     1.8920 h1         1 M94       0.036700
     29 H282         1.6480     0.8840     1.8920 h1         1 M94       0.036700
     30 H271         3.8720    -0.8840     0.8120 hc         1 M94       0.056700
     31 H272         3.8720     0.8850     0.8130 hc         1 M94       0.056700
     32 H24          4.1170     2.1350     2.8770 ha         1 M94       0.130000
     33 H23          4.9990     2.1410     5.1790 ha         1 M94       0.129000
     34 H22          5.4430     0.0100     6.3360 ha         1 M94       0.133000
     35 H111         6.5070    -1.7670     6.6420 h1         1 M94       0.042700
     36 H112         4.8550    -1.7660     7.2750 h1         1 M94       0.042700
     37 H09          7.7890    -3.7910     6.5280 ha         1 M94       0.153000
     38 H07          3.7960    -3.8130     8.0100 ha         1 M94       0.135000
     39 H06          4.0790    -6.0710     8.8960 ha         1 M94       0.135000
     40 H04          5.5220    -8.0800     9.2230 ha         1 M94       0.140000
     41 H03          7.7190    -9.1380     8.8970 ha         1 M94       0.143000
     42 H021         9.8950    -8.6510     6.7560 hn         1 M94       0.437300
     43 H022        10.4900    -7.9590     8.2300 hn         1 M94       0.437300
     44 H26          4.1170    -2.1350     2.8780 ha         1 M94       0.148000
@<TRIPOS>BOND
     1     1     2 1
     2     2     3 1
     3     3     4 1
     4     4     6 1
     5     5     6 ar
     6     5    10 ar
     7     6     7 ar
     8     7     8 ar
     9     8     9 ar
    10     9    10 ar
    11    10    11 1
    12    11    12 1
    13    12    15 1
    14    13    14 ar
    15    13    18 ar
    16    13    23 ar
    17    14    15 ar
    18    15    16 ar
    19    16    17 ar
    20    17    18 ar
    21    18    19 ar
    22    19    20 ar
    23    20    21 ar
    24    21    22 1
    25    21    23 ar
    26     1    24 1
    27     1    25 1
    28     1    26 1
    29     2    27 1
    30     3    28 1
    31     3    29 1
    32     4    30 1
    33     4    31 1
    34     5    44 1
    35     7    32 1
    36     8    33 1
    37     9    34 1
    38    12    35 1
    39    12    36 1
    40    14    37 1
    41    16    38 1
    42    17    39 1
    43    19    40 1
    44    20    41 1
    45    22    42 1
    46    22    43 1
@<TRIPOS>SUBSTRUCTURE
     1 M94         1 TEMP              0 ****  ****    0 ROOT
