@<TRIPOS>MOLECULE
molecule
   45    47     1     0     0
SMALL
bcc


@<TRIPOS>ATOM
      1 CAK          0.0000     0.0000     0.0000 ca         1 M95      -0.123500
      2 CAG          1.3820     0.0000     0.0000 ca         1 M95      -0.123500
      3 CAF          2.0740     0.0000     1.1970 ca         1 M95      -0.128000
      4 CAH          1.3820    -0.0010     2.3940 ca         1 M95      -0.123500
      5 CAL         -0.0000    -0.0020     2.3950 ca         1 M95      -0.123500
      6 CAU         -0.6910     0.0050     1.1970 ca         1 M95      -0.087300
      7 CAP         -2.1990     0.0050     1.1980 c3         1 M95      -0.045100
      8 CAZ         -2.7090     1.4480     1.2060 c3         1 M95       0.127700
      9 CAO         -4.2330     1.4500     1.0800 c3         1 M95       0.118400
     10 OAC         -4.7980     0.6410     2.1140 oh         1 M95      -0.616800
     11 NAR         -2.3210     2.0960     2.4600 ns         1 M95      -0.556900
     12 CAT         -2.1940     3.4370     2.5160 c          1 M95       0.652300
     13 OAA         -2.4000     4.1080     1.5230 o          1 M95      -0.622100
     14 CAD         -1.8030     4.0890     3.7780 ce         1 M95      -0.140200
     15 CAE         -1.6770     5.4270     3.8330 cf         1 M95      -0.201600
     16 CAV         -1.2870     6.0790     5.0950 cd         1 M95       0.732500
     17 NAQ         -1.1680     7.4330     5.1160 na         1 M95      -0.699600
     18 CAX         -0.8050     8.0840     6.2780 ca         1 M95       0.166600
     19 CAM         -0.6750     9.4650     6.3350 ca         1 M95      -0.186000
     20 CAI         -0.3110    10.0690     7.5200 ca         1 M95      -0.071000
     21 CAJ         -0.0720     9.3100     8.6570 ca         1 M95      -0.167000
     22 CAN         -0.1960     7.9380     8.6220 ca         1 M95      -0.035000
     23 CAY         -0.5640     7.3140     7.4320 ca         1 M95      -0.221600
     24 CAW         -0.7120     5.8510     7.3330 c          1 M95       0.723100
     25 OAB         -0.5150     5.1360     8.3010 o          1 M95      -0.545100
     26 NAS         -1.0750     5.3240     6.1510 nc         1 M95      -0.730100
     27 H1          -0.5420     0.0030    -0.9380 ha         1 M95       0.127500
     28 H2           1.9240    -0.0020    -0.9380 ha         1 M95       0.131000
     29 H3           3.1570     0.0000     1.1970 ha         1 M95       0.130000
     30 H4           1.9240    -0.0040     3.3320 ha         1 M95       0.131000
     31 H5          -0.5420    -0.0000     3.3330 ha         1 M95       0.127500
     32 H6          -2.5600    -0.5000     0.3100 hc         1 M95       0.065200
     33 H7          -2.5590    -0.5100     2.0790 hc         1 M95       0.065200
     34 H8          -2.2770     1.9880     0.3720 h1         1 M95       0.090700
     35 H9          -4.5160     1.0510     0.1130 h1         1 M95       0.034700
     36 H10         -4.6020     2.4650     1.1730 h1         1 M95       0.034700
     37 H11         -5.7370     0.6310     2.0280 ho         1 M95       0.406000
     38 H12         -2.1910     1.5470     3.2870 hn         1 M95       0.327500
     39 H13         -1.6180     3.4910     4.6630 ha         1 M95       0.170000
     40 H14         -1.8620     6.0250     2.9490 ha         1 M95       0.160000
     41 H15         -1.3440     7.9610     4.2850 hn         1 M95       0.455800
     42 H16         -0.8590    10.0660     5.4530 ha         1 M95       0.134000
     43 H17         -0.2090    11.1460     7.5630 ha         1 M95       0.136000
     44 H18          0.2140     9.8010     9.5800 ha         1 M95       0.138000
     45 H19         -0.0090     7.3500     9.5120 ha         1 M95       0.161000
@<TRIPOS>BOND
     1    25    24 2
     2    22    21 ar
     3    22    23 ar
     4    21    20 ar
     5    24    23 1
     6    24    26 1
     7    23    18 ar
     8    20    19 ar
     9    26    16 2
    10    18    19 ar
    11    18    17 1
    12    16    17 1
    13    16    15 1
    14    15    14 2
    15    14    12 1
    16    13    12 2
    17    12    11 1
    18     4     3 ar
    19     4     5 ar
    20     3     2 ar
    21     5     6 ar
    22    11     8 1
    23     2     1 ar
    24     6     1 ar
    25     6     7 1
    26     8     7 1
    27     8     9 1
    28    10     9 1
    29     1    27 1
    30     2    28 1
    31     3    29 1
    32     4    30 1
    33     5    31 1
    34     7    32 1
    35     7    33 1
    36     8    34 1
    37     9    35 1
    38     9    36 1
    39    10    37 1
    40    11    38 1
    41    14    39 1
    42    15    40 1
    43    17    41 1
    44    19    42 1
    45    20    43 1
    46    21    44 1
    47    22    45 1
@<TRIPOS>SUBSTRUCTURE
     1 M95         1 TEMP              0 ****  ****    0 ROOT
