@<TRIPOS>MOLECULE
M95
   45    49     1     0     0
SMALL
bcc


@<TRIPOS>ATOM
      1 CAK          0.0000     0.0000     0.0000 ca         1 M95      -0.096500
      2 CAG          1.3820     0.0000     0.0000 ca         1 M95      -0.094000
      3 CAF          2.0740     0.0000     1.1970 ca         1 M95      -0.100000
      4 CAH          1.3820    -0.0010     2.3940 ca         1 M95      -0.094000
      5 CAL         -0.0000    -0.0020     2.3950 ca         1 M95      -0.096500
      6 CAU         -0.6910     0.0050     1.1970 ca         1 M95      -0.095000
      7 CAP         -2.1990     0.0050     1.1980 c3         1 M95      -0.063000
      8 CAZ         -2.7090     1.4480     1.2060 c3         1 M95      -0.057000
      9 CAO         -4.2330     1.4500     1.0800 c3         1 M95       0.048000
     10 OAC         -4.7980     0.6410     2.1140 oh         1 M95      -0.328000
     11 NAR         -2.3210     2.0960     2.4600 n7         1 M95      -0.001000
     12 CAT         -2.1940     3.4370     2.5160 c3         1 M95       0.332000
     13 OAA         -2.4000     4.1080     1.5230 o          1 M95      -0.434000
     14 CAD         -1.8030     4.0890     3.7780 c2         1 M95      -0.001000
     15 CAE         -1.6770     5.4270     3.8330 c2         1 M95      -0.052000
     16 CAV         -1.2870     6.0790     5.0950 c3         1 M95       0.075000
     17 NAQ         -1.1680     7.4330     5.1160 nu         1 M95       0.195000
     18 CAX         -0.8050     8.0840     6.2780 ca         1 M95      -0.074000
     19 CAM         -0.6750     9.4650     6.3350 ca         1 M95      -0.157000
     20 CAI         -0.3110    10.0690     7.5200 ca         1 M95      -0.042000
     21 CAJ         -0.0720     9.3100     8.6570 ca         1 M95      -0.141000
     22 CAN         -0.1960     7.9380     8.6220 ca         1 M95       0.004000
     23 CAY         -0.5640     7.3140     7.4320 ca         1 M95      -0.199000
     24 CAW         -0.7120     5.8510     7.3330 c2         1 M95       0.347000
     25 OAB         -0.5150     5.1360     8.3010 o          1 M95      -0.351000
     26 NAS         -1.0750     5.3240     6.1510 n2         1 M95      -0.296000
     27 H1          -0.5420     0.0030    -0.9380 ha         1 M95       0.104500
     28 H2           1.9240    -0.0020    -0.9380 ha         1 M95       0.104500
     29 H3           3.1570     0.0000     1.1970 ha         1 M95       0.103000
     30 H4           1.9240    -0.0040     3.3320 ha         1 M95       0.104500
     31 H5          -0.5420    -0.0000     3.3330 ha         1 M95       0.104500
     32 H6          -2.5590    -0.5100     2.0790 hc         1 M95       0.074000
     33 H7          -2.5600    -0.5000     0.3100 hc         1 M95       0.074000
     34 H8          -2.2770     1.9880     0.3720 h1         1 M95       0.105000
     35 H9          -4.6020     2.4650     1.1730 h1         1 M95       0.039500
     36 H10         -4.5160     1.0510     0.1130 h1         1 M95       0.039500
     37 H11         -5.7330     0.5980     2.0030 ho         1 M95       0.195000
     38 H12         -2.1880     1.5470     3.2860 hn         1 M95       0.108000
     39 H13         -2.8160     4.0530     3.3960 DU         1 M95       0.021000
     40 H14         -2.3500     5.6040     4.6630 DU         1 M95       0.050000
     41 H15         -1.3430     7.9610     4.2840 hn         1 M95       0.092000
     42 H16         -0.8590    10.0660     5.4530 ha         1 M95       0.111000
     43 H17         -0.2090    11.1460     7.5630 ha         1 M95       0.103000
     44 H18          0.2140     9.8010     9.5800 ha         1 M95       0.110000
     45 H19         -0.0090     7.3500     9.5120 ha         1 M95       0.128000
@<TRIPOS>BOND
     1     1     2 1   
     2     1     6 1   
     3     1    27 1   
     4     2     3 1   
     5     2    28 1   
     6     3     4 1   
     7     3    29 1   
     8     4     5 1   
     9     4    30 1   
    10     5     6 1   
    11     5    31 1   
    12     6     7 1   
    13     7     8 1   
    14     7    32 1   
    15     7    33 1   
    16     8     9 1   
    17     8    11 1   
    18     8    34 1   
    19     9    10 1   
    20     9    35 1   
    21     9    36 1   
    22    10    37 1   
    23    11    12 1   
    24    11    38 1   
    25    12    13 1   
    26    12    14 1   
    27    12    39 1   
    28    14    15 1   
    29    14    39 1   
    30    15    16 1   
    31    15    40 1   
    32    16    17 1   
    33    16    26 1   
    34    16    40 1   
    35    17    18 1   
    36    17    41 1   
    37    18    19 1   
    38    18    23 1   
    39    19    20 1   
    40    19    42 1   
    41    20    21 1   
    42    20    43 1   
    43    21    22 1   
    44    21    44 1   
    45    22    23 1   
    46    22    45 1   
    47    23    24 1   
    48    24    25 1   
    49    24    26 1   
@<TRIPOS>SUBSTRUCTURE
     1 M95         1 TEMP              0 ****  ****    0 ROOT
