@<TRIPOS>MOLECULE
M97
   44    49     1     0     0
SMALL
bcc


@<TRIPOS>ATOM
      1 C1           0.0000     0.0000     0.0000 c3         1 M97      -0.015500
      2 N1          -0.9440     3.3630    -1.1660 na         1 M97       0.388600
      3 O1          -1.4810    -0.0000     1.9210 o          1 M97      -0.567500
      4 C2           2.0730    -1.2390    -0.6730 cc         1 M97       0.094700
      5 N2           0.7710     0.0000     2.1960 ns         1 M97      -0.162500
      6 O2           3.0210    -0.0000     1.9230 o          1 M97      -0.602500
      7 C3           2.8460    -1.2980    -1.7520 cd         1 M97      -0.393200
      8 N3           3.1410    -2.5720    -2.1040 na         1 M97       0.857800
      9 C4          -0.5310     1.2380    -0.6770 cc         1 M97      -0.191400
     10 C5          -0.3000     2.5090    -0.3120 cd         1 M97      -0.242100
     11 C6           1.5430     0.0000     0.0000 c3         1 M97      -0.095400
     12 C7          -0.3550     0.0000     1.4700 c          1 M97       0.599500
     13 C8           1.8970     0.0000     1.4710 c          1 M97       0.611500
     14 C9          -1.6220     2.6440    -2.1240 ca         1 M97      -0.226200
     15 C10         -1.3880     1.2810    -1.8640 ca         1 M97      -0.081800
     16 C11         -1.9570     0.3070    -2.6870 ca         1 M97      -0.065000
     17 C12         -2.7320     0.6840    -3.7480 ca         1 M97      -0.107000
     18 C13         -2.9580     2.0280    -4.0140 ca         1 M97      -0.076000
     19 C14         -2.4230     3.0040    -3.2030 ca         1 M97      -0.084000
     20 C15          2.6540    -4.8220    -1.3130 ca         1 M97      -0.022000
     21 C16          3.3600    -5.3720    -2.2750 ca         1 M97       0.017000
     22 C17          4.0050    -4.4310    -3.2250 ca         1 M97      -0.027000
     23 C18          3.8760    -3.1270    -3.1060 ca         1 M97      -0.287300
     24 C19          2.5950    -3.3650    -1.3000 ca         1 M97      -0.274300
     25 C20          1.8370    -2.6370    -0.2760 ca         1 M97      -0.158000
     26 C21          1.2130    -3.3350     0.6310 ca         1 M97       0.144000
     27 C22          1.2590    -4.8070     0.6400 ca         1 M97      -0.112000
     28 C23          1.9200    -5.5260    -0.2510 ca         1 M97      -0.006000
     29 H1          -0.3780    -0.8950    -0.4800 hc         1 M97       0.059700
     30 HN2          0.7710     0.0000     3.1970 hn         1 M97       0.208500
     31 H3           3.5530    -0.5020    -1.9560 h4         1 M97       0.184000
     32 H5           0.3050     2.8130     0.5330 h4         1 M97       0.140000
     33 H6           1.9220     0.8940    -0.4810 hc         1 M97       0.092700
     34 H11         -1.7850    -0.7430    -2.4850 ha         1 M97       0.091000
     35 H12         -3.1600    -0.0710    -4.3950 ha         1 M97       0.107000
     36 H13         -3.5750     2.3110    -4.8590 ha         1 M97       0.111000
     37 H14         -2.6050     4.0500    -3.4200 ha         1 M97       0.109000
     38 H16          3.4640    -6.4460    -2.3700 ha         1 M97       0.147000
     39 H17          4.5990    -4.8290    -4.0380 ha         1 M97       0.146000
     40 H18          4.3660    -2.4800    -3.8240 h4         1 M97       0.169000
     41 H21          0.6480    -2.8200     1.3980 ha         1 M97       0.119000
     42 H22          0.7200    -5.3300     1.4210 ha         1 M97       0.137000
     43 H23          1.9210    -6.6080    -0.1990 ha         1 M97       0.139000
     44 HN1         -0.9250     4.3610    -1.1020 hn         1 M97       0.123700
@<TRIPOS>BOND
     1     1     9 1   
     2     1    11 1   
     3     1    12 1   
     4     1    29 1   
     5     2    10 1   
     6     2    14 1   
     7     2    44 1   
     8     3    12 2   
     9     4     7 2   
    10     4    11 1   
    11     4    25 1   
    12     5    12 1   
    13     5    13 1   
    14     5    30 1   
    15     6    13 2   
    16     7     8 1   
    17     7    31 1   
    18     8    23 1   
    19     8    24 2   
    20     9    10 2   
    21     9    15 1   
    22    10    32 1   
    23    11    13 1   
    24    11    33 1   
    25    14    15 ar  
    26    14    19 ar  
    27    15    16 ar  
    28    16    17 ar  
    29    16    34 1   
    30    17    18 ar  
    31    17    35 1   
    32    18    19 ar  
    33    18    36 1   
    34    19    37 1   
    35    20    21 ar  
    36    20    24 ar  
    37    20    28 ar  
    38    21    22 ar  
    39    21    38 1   
    40    22    23 ar  
    41    22    39 1   
    42    23    40 1   
    43    24    25 ar  
    44    25    26 ar  
    45    26    27 ar  
    46    26    41 1   
    47    27    28 ar  
    48    27    42 1   
    49    28    43 1   
@<TRIPOS>SUBSTRUCTURE
     1 M97         1 TEMP              0 ****  ****    0 ROOT
