@<TRIPOS>MOLECULE
M98
   56    56     1     0     0
SMALL
bcc


@<TRIPOS>ATOM
      1 F1          3.1890   -1.1970   -0.9060 f         1 M98     -0.048000
      2 F2          3.9840    0.4470    0.2260 f         1 M98     -0.179000
      3 C1          3.4290   -0.7330    0.5150 c2        1 M98      0.140000
      4 O1          2.1260   -0.5990    0.9370 os        1 M98     -0.277000
      5 C12         2.7760    0.7930    5.2470 c3        1 M98     -0.245000
      6 C13         2.8000    1.7460    6.4160 c3        1 M98     -0.190000
      7 C8          1.7690    1.2400    4.2450 c1        1 M98     -0.013000
      8 O2          2.2310    1.0830    3.0060 os        1 M98     -0.126000
      9 C2          1.3970    0.5850    0.8740 c2        1 M98      0.108000
     10 C3          1.3430    1.4060    1.9610 c2        1 M98      0.066000
     11 C4          0.4800    2.5650    2.0720 c2        1 M98     -0.103000
     12 C5          0.6430    3.5480    2.9680 c2        1 M98     -0.156000
     13 C6          0.0300    1.0180   -1.3040 c1        1 M98     -0.161000
     14 C7          0.6630    0.8180   -0.3060 c1        1 M98     -0.163000
     15 C9         -0.3110    4.6880    3.1020 c3        1 M98     -0.016000
     16 C10         0.3280    5.9630    2.6560 c2        1 M98     -0.363000
     17 C11         0.3810    8.1890    2.0480 c1        1 M98     -0.083000
     18 N1         -0.3850    7.1350    2.4710 n3        1 M98     -0.114000
     19 S1          1.9260    6.1580    2.3010 ss        1 M98      0.757000
     20 C14         1.7210    7.7890    1.9020 c2        1 M98     -0.621000
     21 C15         2.7820    8.6980    1.4380 c3        1 M98      0.138000
     22 O3          4.0520    8.3780    1.9790 oh        1 M98     -0.299000
     23 C16         2.4710   10.2110    1.8180 c3        1 M98      0.420500
     24 F5          3.5550   11.0250    1.5930 f         1 M98     -0.148500
     25 F6          1.4430   10.7990    1.1450 f         1 M98     -0.148500
     26 F7          2.2130   10.3770    3.1540 f         1 M98     -0.148500
     27 C17         3.0110    8.5880   -0.1320 c3        1 M98      0.420500
     28 F8          3.4410    7.3500   -0.5290 f         1 M98     -0.148500
     29 F9          1.8950    8.8360   -0.8820 f         1 M98     -0.148500
     30 F10         3.9590    9.4560   -0.6020 f         1 M98     -0.148500
     31 C18        -0.7810    4.8120    4.5580 c3        1 M98     -0.134000
     32 C19        -1.6920    3.6930    4.9420 c2        1 M98      0.016000
     33 C20        -1.0410    2.6020    5.7250 c3        1 M98     -0.064000
     34 C21        -1.9160    1.5510    6.1510 c1        1 M98     -0.170000
     35 C22        -3.0040    3.6600    4.6180 c2        1 M98     -0.296000
     36 C23        -2.6170    0.6540    6.5200 c1        1 M98     -0.201000
     37 N2         -3.6420    4.7080    3.8560 n2        1 M98      0.180000
     38 H1          2.5510   -1.5640   -1.2920 ha        1 M98      0.352000
     39 H122        3.2440    2.7250    6.1160 hc        1 M98      0.078667
     40 H131        2.4270   -0.2240    5.5880 hc        1 M98      0.114500
     41 H132        3.4160    1.3180    7.2430 hc        1 M98      0.078667
     42 H8          1.7640    1.9280    6.7960 hc        1 M98      0.078667
     43 H4         -0.3510    2.5840    1.3430 ha        1 M98      0.149000
     44 H6          1.4760    3.5400    3.6930 ha        1 M98      0.143000
     45 H7         -0.5310    1.2030   -2.1860 ha        1 M98      0.234000
     46 H9         -1.2180    4.5030    2.4510 hc        1 M98      0.131000
     47 H11        -1.3650    7.2030    2.6300 hn        1 M98      0.273000
     48 HO3         4.0290    8.6070    2.9200 ho        1 M98      0.232000
     49 H181        0.1170    4.8230    5.2330 hc        1 M98      0.107000
     50 H182       -1.3100    5.7920    4.6970 hc        1 M98      0.107000
     51 H20        -0.5500    3.0580    6.6350 hc        1 M98      0.142500
     52 H21        -0.2030    2.1590    5.0900 hc        1 M98      0.142500
     53 H22        -3.6390    2.8090    4.9420 h4        1 M98      0.156000
     54 H23        -3.2370   -0.1410    6.8480 ha        1 M98      0.225000
     55 O4         -4.7740    4.6010    3.6200 o         1 M98     -0.190000
     56 H121        3.8100    0.6640    4.8280 hc        1 M98      0.114500
@<TRIPOS>BOND
     1    1    3 1   
     2    1   38 1   
     3    2    3 1   
     4    3    4 1   
     5    4    9 1   
     6    5    6 1   
     7    5    7 1   
     8    5   40 1   
     9    5   56 1   
    10    6   39 1   
    11    6   41 1   
    12    6   42 1   
    13    7    8 1   
    14    8   10 1   
    15    9   10 1   
    16    9   14 1   
    17   10   11 1   
    18   11   12 1   
    19   11   43 1   
    20   12   15 1   
    21   12   44 1   
    22   13   14 1   
    23   13   45 1   
    24   15   16 1   
    25   15   31 1   
    26   15   46 1   
    27   16   18 1   
    28   16   19 1   
    29   17   18 1   
    30   17   20 1   
    31   18   47 1   
    32   19   20 1   
    33   20   21 1   
    34   21   22 1   
    35   21   23 1   
    36   21   27 1   
    37   22   48 1   
    38   23   24 1   
    39   23   25 1   
    40   23   26 1   
    41   27   28 1   
    42   27   29 1   
    43   27   30 1   
    44   31   32 1   
    45   31   49 1   
    46   31   50 1   
    47   32   33 1   
    48   32   35 1   
    49   33   34 1   
    50   33   51 1   
    51   33   52 1   
    52   34   36 1   
    53   35   37 1   
    54   35   53 1   
    55   36   54 1   
    56   37   55 1   
@<TRIPOS>SUBSTRUCTURE
     1 M98         1 TEMP              0 ****  ****    0 ROOT
