@<TRIPOS>MOLECULE
molecule
   56    59     1     0     0
SMALL
bcc


@<TRIPOS>ATOM
      1 F1           0.0000     0.0000     0.0000 f          1 M98      -0.233800
      2 F2           1.8640     1.1440    -0.6590 f          1 M98      -0.233800
      3 C1           1.3990     0.0000     0.0000 c3         1 M98       0.557700
      4 O1           1.8760     0.0000     1.3470 os         1 M98      -0.294900
      5 C12          4.8740     0.5400     4.7740 cx         1 M98      -0.140900
      6 C13          4.8210    -0.2280     3.4510 cx         1 M98      -0.140900
      7 C8           3.8300     0.9070     3.7170 cx         1 M98       0.052100
      8 O2           2.4710     0.5480     3.9800 os         1 M98      -0.273900
      9 C2           1.3930     1.1280     1.9350 ca         1 M98       0.093100
     10 C3           1.6940     1.4040     3.2650 ca         1 M98       0.088100
     11 C4           1.2040     2.5560     3.8580 ca         1 M98      -0.107000
     12 C5           0.4090     3.4230     3.1310 ca         1 M98      -0.120300
     13 C6           0.1090     3.1480     1.8100 ca         1 M98      -0.082000
     14 C7           0.5990     2.0030     1.2110 ca         1 M98      -0.199000
     15 C9          -0.1280     4.6740     3.7800 c3         1 M98      -0.018700
     16 C10          0.3750     5.8820     3.0330 cc         1 M98       0.497700
     17 C11          0.7010     7.3130     1.2700 cd         1 M98       0.411200
     18 N1           0.1940     6.2080     1.7730 nd         1 M98      -0.724000
     19 S1           1.3420     7.2010     3.6170 ss         1 M98      -0.160300
     20 C14          1.4340     8.1150     2.0840 cc         1 M98      -0.204700
     21 C15          2.1260     9.4190     1.7810 c3         1 M98       0.170100
     22 O3           2.1530    10.2290     2.9580 oh         1 M98      -0.550800
     23 C16          1.3700    10.1540     0.6740 c3         1 M98       0.609900
     24 F5           2.0120    11.3640     0.3930 f          1 M98      -0.203133
     25 F6           1.3430     9.3610    -0.4790 f          1 M98      -0.203133
     26 F7           0.0600    10.4090     1.0940 f          1 M98      -0.203133
     27 C17          3.5590     9.1400     1.3210 c3         1 M98       0.609900
     28 F8           4.2520     8.4680     2.3340 f          1 M98      -0.203133
     29 F9           3.5330     8.3470     0.1690 f          1 M98      -0.203133
     30 F10          4.2020    10.3500     1.0400 f          1 M98      -0.203133
     31 C18         -1.6570     4.6510     3.7430 c3         1 M98      -0.020100
     32 C19         -2.1640     3.5130     4.5920 ca         1 M98      -0.101300
     33 C20         -2.4330     3.7070     5.9380 ca         1 M98      -0.118000
     34 C21         -2.8980     2.6320     6.6800 ca         1 M98      -0.141000
     35 C22         -2.3700     2.2640     4.0360 ca         1 M98      -0.086300
     36 C23         -3.0750     1.4110     6.0590 ca         1 M98      -0.099300
     37 N2          -2.8080     1.2620     4.7750 na         1 M98       0.417300
     38 H1           1.7610    -0.8840    -0.5110 h3         1 M98       0.120700
     39 H122         4.4970     0.0070     5.6390 hc         1 M98       0.081200
     40 H131         5.6130    -0.0020     2.7480 hc         1 M98       0.081200
     41 H132         4.4120    -1.2300     3.5090 hc         1 M98       0.081200
     42 H8           4.0340     1.8230     3.1770 h1         1 M98       0.089700
     43 H4           1.4370     2.7740     4.8930 ha         1 M98       0.147000
     44 H6          -0.5120     3.8310     1.2430 ha         1 M98       0.158000
     45 H7           0.3620     1.7900     0.1750 ha         1 M98       0.179000
     46 H9           0.2070     4.7190     4.8090 hc         1 M98       0.075700
     47 H11          0.5450     7.5720     0.2300 h4         1 M98       0.057100
     48 HO3          1.5460    10.9440     2.8620 ho         1 M98       0.433000
     49 H181        -1.9920     4.5160     2.7210 hc         1 M98       0.070200
     50 H182        -2.0420     5.5870     4.1280 hc         1 M98       0.070200
     51 H20         -2.2850     4.6770     6.3990 ha         1 M98       0.147000
     52 H21         -3.1190     2.7480     7.7340 ha         1 M98       0.157000
     53 H22         -2.1620     2.1040     2.9850 h4         1 M98       0.198000
     54 H23         -3.4350     0.5650     6.6320 h4         1 M98       0.191000
     55 O4          -3.0020    -0.0050     4.1730 o          1 M98      -0.655700
     56 H121         5.6980     1.2350     4.8780 hc         1 M98       0.081200
@<TRIPOS>BOND
     1     1     3 1
     2     2     3 1
     3     3     4 1
     4     3    38 1
     5     4     9 1
     6     5     6 1
     7     5     7 1
     8     5    56 1
     9     5    39 1
    10     6     7 1
    11     6    40 1
    12     6    41 1
    13     7     8 1
    14     7    42 1
    15     8    10 1
    16     9    10 ar
    17     9    14 ar
    18    10    11 ar
    19    11    12 ar
    20    11    43 1
    21    12    13 ar
    22    12    15 1
    23    13    14 ar
    24    13    44 1
    25    14    45 1
    26    15    16 1
    27    15    31 1
    28    15    46 1
    29    16    18 2
    30    16    19 1
    31    17    18 1
    32    17    20 2
    33    17    47 1
    34    19    20 1
    35    20    21 1
    36    21    22 1
    37    21    23 1
    38    21    27 1
    39    22    48 1
    40    23    24 1
    41    23    25 1
    42    23    26 1
    43    27    28 1
    44    27    29 1
    45    27    30 1
    46    31    32 1
    47    31    49 1
    48    31    50 1
    49    32    33 ar
    50    32    35 ar
    51    33    34 ar
    52    33    51 1
    53    34    36 ar
    54    34    52 1
    55    35    37 1
    56    35    53 1
    57    36    37 2
    58    36    54 1
    59    55    37 2
@<TRIPOS>SUBSTRUCTURE
     1 M98         1 TEMP              0 ****  ****    0 ROOT
