@<TRIPOS>MOLECULE
M99
   56    55     1     0     0
SMALL
bcc


@<TRIPOS>ATOM
      1 F1         -1.0830   -0.0460    2.5770 f         1 M99     -0.136000
      2 F2         -0.5660    0.9910    0.8280 f         1 M99     -0.136000
      3 C1         -0.9710   -0.1760    1.2780 c1        1 M99      0.274000
      4 O1          1.7660    0.5740    1.3060 oh        1 M99     -0.249000
      5 C12         0.9390   -1.3660    5.1300 c3        1 M99     -0.180000
      6 C13         3.0940   -0.0740    5.1130 c2        1 M99     -0.316000
      7 C8          2.1700   -0.8200    4.5000 c2        1 M99      0.033000
      8 O2          2.1970   -1.2070    3.1580 os        1 M99     -0.162000
      9 C2          3.0530    0.0700    1.3860 c2        1 M99      0.131000
     10 C3          3.3010   -0.8130    2.4000 c2        1 M99      0.025000
     11 C4          4.5520   -1.4670    2.7280 c2        1 M99     -0.100000
     12 C5          5.5890   -1.6460    1.9000 c2        1 M99     -0.171000
     13 C6          4.7540    0.8720   -0.4180 c1        1 M99     -0.155000
     14 C7          3.9820    0.4950    0.4170 c1        1 M99     -0.174000
     15 C9          6.8640   -2.3200    2.2860 c3        1 M99     -0.014000
     16 C10         6.6270   -3.7670    2.5830 c2        1 M99     -0.348000
     17 C11         5.9900   -5.6080    3.8200 c1        1 M99     -0.083000
     18 N1          6.1180   -4.2420    3.7750 n3        1 M99     -0.110000
     19 S1          6.9390   -4.9880    1.5190 ss        1 M99      0.724000
     20 C14         6.4150   -6.1770    2.6080 c2        1 M99     -0.611000
     21 C15         6.3850   -7.6250    2.3430 c3        1 M99      0.137000
     22 O3          7.4300   -8.0460    1.4850 oh        1 M99     -0.300000
     23 C16         5.0680   -8.0590    1.5620 c3        1 M99      0.421000
     24 F5          4.9720   -7.5000    0.3160 f         1 M99     -0.148500
     25 F6          3.9040   -7.7270    2.1960 f         1 M99     -0.148500
     26 F7          4.9880   -9.4090    1.3480 f         1 M99     -0.148500
     27 C17         6.5020   -8.4730    3.6840 c3        1 M99      0.421000
     28 F8          5.4300   -8.4210    4.5230 f         1 M99     -0.148500
     29 F9          7.6010   -8.1300    4.4280 f         1 M99     -0.148500
     30 F10         6.6880   -9.8090    3.4270 f         1 M99     -0.148500
     31 C18         7.5610   -1.6330    3.4660 c3        1 M99     -0.128000
     32 C19         8.3220   -0.4260    3.0380 c2        1 M99     -0.063000
     33 C20         9.6290   -0.5130    2.7000 c2        1 M99     -0.068000
     34 C21        10.4340    0.6250    2.3240 c2        1 M99     -0.437000
     35 C22         7.6490    0.8660    2.9860 c2        1 M99     -0.266000
     36 C23        10.0330    1.8850    2.3310 c1        1 M99      0.191000
     37 N2          6.7940    1.3470    3.8850 n3        1 M99      0.286000
     38 H11         1.7230    1.1820    0.5520 ho        1 M99      0.232000
     39 H122        0.0370   -1.0360    4.5540 hc        1 M99      0.098667
     40 H131        0.8580   -1.0050    6.1830 hc        1 M99      0.098667
     41 H132        2.9940    0.1900    6.1720 ha        1 M99      0.133500
     42 H88         3.9940    0.3100    4.6180 ha        1 M99      0.133500
     43 H44         4.5820   -1.8460    3.7690 ha        1 M99      0.144000
     44 H66         5.5560   -1.2970    0.8540 ha        1 M99      0.139000
     45 H77         5.4340    1.2050   -1.1620 ha        1 M99      0.233000
     46 H99         7.5660   -2.2730    1.4000 hc        1 M99      0.111000
     47 H111        5.8650   -3.6490    4.5320 hn        1 M99      0.271000
     48 H181        8.2750   -2.3610    3.9400 hc        1 M99      0.116000
     49 H182        6.8020   -1.3550    4.2480 hc        1 M99      0.116000
     50 H220       10.1440   -1.4880    2.7100 ha        1 M99      0.140000
     51 H221       11.4790    0.4010    2.0220 ha        1 M99      0.194000
     52 H222        7.8540    1.5180    2.1100 h4        1 M99      0.169000
     53 H223        6.4340    2.2870    3.6790 hn        1 M99      0.223000
     54 HO1         8.2580   -7.9650    1.9810 ho        1 M99      0.231000
     55 O4          6.3980    0.8090    4.9040 o         1 M99     -0.430000
     56 H121        0.9690   -2.4840    5.1240 hc        1 M99      0.098667
@<TRIPOS>BOND
     1    1    3 1   
     2    2    3 1   
     3    4    9 1   
     4    4   38 1   
     5    5    7 1   
     6    5   39 1   
     7    5   40 1   
     8    5   56 1   
     9    6    7 1   
    10    6   41 1   
    11    6   42 1   
    12    7    8 1   
    13    8   10 1   
    14    9   10 1   
    15    9   14 1   
    16   10   11 1   
    17   11   12 1   
    18   11   43 1   
    19   12   15 1   
    20   12   44 1   
    21   13   14 1   
    22   13   45 1   
    23   15   16 1   
    24   15   31 1   
    25   15   46 1   
    26   16   18 1   
    27   16   19 1   
    28   17   18 1   
    29   17   20 1   
    30   18   47 1   
    31   19   20 1   
    32   20   21 1   
    33   21   22 1   
    34   21   23 1   
    35   21   27 1   
    36   22   54 1   
    37   23   24 1   
    38   23   25 1   
    39   23   26 1   
    40   27   28 1   
    41   27   29 1   
    42   27   30 1   
    43   31   32 1   
    44   31   48 1   
    45   31   49 1   
    46   32   33 1   
    47   32   35 1   
    48   33   34 1   
    49   33   50 1   
    50   34   36 1   
    51   34   51 1   
    52   35   37 1   
    53   35   52 1   
    54   37   53 1   
    55   37   55 1   
@<TRIPOS>SUBSTRUCTURE
     1 M99         1 TEMP              0 ****  ****    0 ROOT
