@<TRIPOS>MOLECULE
molecule
   56    59     1     0     0
SMALL
bcc


@<TRIPOS>ATOM
      1 F1           0.0000     0.0000     0.0000 f          1 M99      -0.223800
      2 F2           1.7430     1.1590    -0.5890 f          1 M99      -0.223800
      3 C1           1.3580     0.0000     0.0000 c3         1 M99       0.605700
      4 O1           1.7870     0.0000     1.3550 os         1 M99      -0.350900
      5 C12          1.3650     0.0000     5.8470 cx         1 M99      -0.133400
      6 C13          2.2930     0.9340     5.1290 cx         1 M99      -0.133400
      7 C8           2.5280    -0.5510     5.0670 cx         1 M99       0.056100
      8 O2           2.2180    -1.1890     3.8300 os         1 M99      -0.294900
      9 C2           2.9750    -0.6030     1.6360 ca         1 M99       0.129100
     10 C3           3.1920    -1.1990     2.8780 ca         1 M99       0.119100
     11 C4           4.4140    -1.8140     3.1530 ca         1 M99      -0.126000
     12 C5           5.4190    -1.8320     2.1850 ca         1 M99      -0.105300
     13 C6           5.2020    -1.2360     0.9430 ca         1 M99      -0.101000
     14 C7           3.9810    -0.6220     0.6680 ca         1 M99      -0.186000
     15 C9           6.7250    -2.4880     2.4790 c3         1 M99      -0.044700
     16 C10          6.5880    -3.9960     2.7190 cc         1 M99       0.391700
     17 C11          6.3480    -5.8670     3.7340 cd         1 M99       0.396200
     18 N1           6.4360    -4.4980     3.8920 nd         1 M99      -0.610000
     19 S1           6.6430    -5.0100     1.3660 ss         1 M99      -0.005300
     20 C14          6.4400    -6.3320     2.4390 cc         1 M99      -0.244700
     21 C15          6.3850    -7.7140     1.9250 c3         1 M99       0.145100
     22 O3           6.4610    -7.7510     0.4730 oh         1 M99      -0.573800
     23 C16          5.0550    -8.4410     2.2550 c3         1 M99       0.636900
     24 F5           4.0100    -7.7750     1.7130 f          1 M99      -0.213467
     25 F6           4.8460    -8.5190     3.5860 f          1 M99      -0.213467
     26 F7           5.0170    -9.7060     1.7720 f          1 M99      -0.213467
     27 C17          7.5780    -8.5910     2.3890 c3         1 M99       0.636900
     28 F8           7.6030    -8.6700     3.7380 f          1 M99      -0.213467
     29 F9           8.7750    -8.0960     1.9960 f          1 M99      -0.213467
     30 F10          7.4910    -9.8480     1.9050 f          1 M99      -0.213467
     31 C18          7.5590    -1.8190     3.6210 c3         1 M99      -0.016100
     32 C19          7.8710    -0.3590     3.3850 ca         1 M99      -0.090300
     33 C20          9.0260    -0.0020     2.7190 ca         1 M99      -0.128000
     34 C21          9.2980     1.3470     2.5130 ca         1 M99      -0.131000
     35 C22          7.0010     0.6060     3.8390 ca         1 M99      -0.102300
     36 C23          8.3970     2.2910     2.9840 ca         1 M99      -0.116300
     37 N2           7.2870     1.8980     3.6260 na         1 M99       0.435300
     38 H11          1.7480    -0.8580    -0.5340 h3         1 M99       0.072700
     39 H122         0.3910    -0.1330     5.3910 hc         1 M99       0.087450
     40 H131         2.9760     1.4900     5.7600 hc         1 M99       0.087450
     41 H132         1.8970     1.3830     4.2260 hc         1 M99       0.087450
     42 H88          3.3560    -0.9120     5.6650 h1         1 M99       0.079700
     43 H44          4.5830    -2.2770     4.1170 ha         1 M99       0.160000
     44 H66          5.9820    -1.2490     0.1920 ha         1 M99       0.136000
     45 H77          3.8120    -0.1590    -0.2960 ha         1 M99       0.147000
     46 H99          7.3180    -2.3820     1.5790 hc         1 M99       0.053700
     47 H111         6.2160    -6.5350     4.5760 h4         1 M99       0.058100
     48 H181         8.4930    -2.3580     3.7250 hc         1 M99       0.068700
     49 H182         7.0050    -1.9070     4.5480 hc         1 M99       0.068700
     50 H220         9.7120    -0.7610     2.3620 ha         1 M99       0.146000
     51 H221        10.1970     1.6550     1.9930 ha         1 M99       0.157000
     52 H222         6.0950     0.3250     4.3610 h4         1 M99       0.195000
     53 H223         8.5900     3.3460     2.8330 h4         1 M99       0.193000
     54 HO1          7.1250    -8.3660     0.2090 ho         1 M99       0.432000
     55 O4           6.4130     2.8560     4.0830 o          1 M99      -0.650700
     56 H121         1.4700    -0.0260     6.9250 hc         1 M99       0.087450
@<TRIPOS>BOND
     1     1     3 1
     2     2     3 1
     3     3     4 1
     4     3    38 1
     5     4     9 1
     6     5     6 1
     7     5     7 1
     8     5    56 1
     9     5    39 1
    10     6     7 1
    11     6    40 1
    12     6    41 1
    13     7     8 1
    14     7    42 1
    15     8    10 1
    16     9    10 ar
    17     9    14 ar
    18    10    11 ar
    19    11    12 ar
    20    11    43 1
    21    12    13 ar
    22    12    15 1
    23    13    14 ar
    24    13    44 1
    25    14    45 1
    26    15    16 1
    27    15    31 1
    28    15    46 1
    29    16    18 2
    30    16    19 1
    31    17    18 1
    32    17    20 2
    33    17    47 1
    34    19    20 1
    35    20    21 1
    36    21    22 1
    37    21    23 1
    38    21    27 1
    39    23    24 1
    40    23    25 1
    41    23    26 1
    42    27    28 1
    43    27    29 1
    44    27    30 1
    45    31    32 1
    46    31    48 1
    47    31    49 1
    48    32    33 ar
    49    32    35 ar
    50    33    34 ar
    51    33    50 1
    52    34    36 ar
    53    34    51 1
    54    35    37 1
    55    35    52 1
    56    36    37 2
    57    36    53 1
    58    55    37 2
    59    54    22 1
@<TRIPOS>SUBSTRUCTURE
     1 M99         1 TEMP              0 ****  ****    0 ROOT
