@<TRIPOS>MOLECULE
M9F
   49    48     1     0     0
SMALL
bcc


@<TRIPOS>ATOM
      1 CAU          0.0000     0.0000     0.0000 c          1 M9F       0.564100
      2 OAV          1.2120     0.0000     0.0000 o          1 M9F      -0.640100
      3 O           -0.4940    -0.8550     6.9290 o          1 M9F      -0.820800
      4 CAT         -0.7540     0.0000     1.3050 c3         1 M9F      -0.089400
      5 C           -0.2820     0.1270     6.2570 c          1 M9F       0.952600
      6 CA           0.4680     0.0020     4.9560 c3         1 M9F      -0.104500
      7 CB          -0.5250     0.0020     3.7930 c3         1 M9F      -0.216400
      8 CAS          0.2400     0.0000     2.4680 c3         1 M9F       0.027600
      9 N            1.2320    -1.2530     4.9480 nz         1 M9F       0.040400
     10 NAC         -0.6740     0.0040    -1.1670 ns         1 M9F      -0.160900
     11 CAD          0.0600     0.0100    -2.4360 c3         1 M9F      -0.050300
     12 CAG         -0.8040     0.6140    -3.5130 c          1 M9F       0.594100
     13 OAH         -1.9220     1.0030    -3.2460 o          1 M9F      -0.636100
     14 CAE          0.4240    -1.4250    -2.8200 c3         1 M9F       0.082700
     15 SAF          1.4640    -2.1540    -1.5250 sh         1 M9F      -0.376900
     16 CAN          1.2930     0.6720    -9.1720 c3         1 M9F       0.104000
     17 SAM          1.0020     1.2380    -7.4730 ss         1 M9F      -0.404200
     18 CAK         -0.7300     0.7850    -7.1840 c3         1 M9F       0.093400
     19 CAO         -0.8720    -0.7380    -7.2120 c3         1 M9F      -0.088100
     20 CAJ         -1.1740     1.3130    -5.8180 c3         1 M9F      -0.116300
     21 CAP         -1.0350     2.8130    -5.7900 c          1 M9F       0.972600
     22 OAR         -1.7180     3.5670    -6.6650 o          1 M9F      -0.875300
     23 OAQ         -0.3090     3.3370    -4.9780 o          1 M9F      -0.875300
     24 NAI         -0.3340     0.7240    -4.7720 ns         1 M9F      -0.197900
     25 HAT1        -1.3770     0.8840     1.3620 hc         1 M9F       0.036700
     26 HAT2        -1.3760    -0.8850     1.3620 hc         1 M9F       0.036700
     27 HA           1.1480     0.8390     4.8500 hx         1 M9F       0.065700
     28 HB1C         0.1290     0.8510     3.9500 hc         1 M9F       0.099200
     29 HB2C        -1.5100     0.4470     3.8680 hc         1 M9F       0.099200
     30 HAS1         0.8630     0.8850     2.4110 hc         1 M9F       0.010200
     31 HAS2         0.8620    -0.8840     2.4120 hc         1 M9F       0.010200
     32 HN1          2.0290    -1.1780     4.3490 hn         1 M9F       0.215467
     33 HN2          0.6560    -2.0120     4.6440 hn         1 M9F       0.215467
     34 HAC         -1.6740     0.0280    -1.1680 hn         1 M9F       0.197500
     35 HAD          0.9650     0.5960    -2.3270 h1         1 M9F       0.081700
     36 HAE1        -0.6050    -1.7620    -2.8060 h1         1 M9F       0.048700
     37 HAE2         0.8680    -1.4860    -3.8070 h1         1 M9F       0.048700
     38 HAF          1.9390    -3.3200    -1.9430 hs         1 M9F       0.149800
     39 HAN1         0.3880     0.7960    -9.7540 h1         1 M9F       0.021033
     40 HAN2         2.0900     1.2560    -9.6160 h1         1 M9F       0.021033
     41 HAN3         1.5750    -0.3740    -9.1610 h1         1 M9F       0.021033
     42 HAK         -1.3510     1.2200    -7.9580 h1         1 M9F       0.074700
     43 HAO1        -1.5080    -0.3550    -8.0010 hc         1 M9F       0.032700
     44 HAO2        -1.4030    -1.1590    -6.3670 hc         1 M9F       0.032700
     45 HAO3         0.0080    -1.2670    -7.5590 hc         1 M9F       0.032700
     46 HAJ         -2.2090     1.0430    -5.6450 h1         1 M9F       0.059700
     47 HAI          0.5520     1.1270    -5.0040 hn         1 M9F       0.216500
     48 HN3          1.5580    -1.4500     5.8740 hn         1 M9F       0.215467
     49 OXT         -0.7490     1.3220     6.6500 o          1 M9F      -0.820800
@<TRIPOS>BOND
     1     1     2 2   
     2     1     4 1   
     3     1    10 1   
     4     3     5 1   
     5     4     8 1   
     6     4    25 1   
     7     4    26 1   
     8     5     6 1   
     9     5    49 1   
    10     6     7 1   
    11     6     9 1   
    12     6    27 1   
    13     7     8 1   
    14     7    28 1   
    15     7    29 1   
    16     8    30 1   
    17     8    31 1   
    18     9    32 1   
    19     9    33 1   
    20     9    48 1   
    21    10    11 1   
    22    10    34 1   
    23    11    12 1   
    24    11    14 1   
    25    11    35 1   
    26    12    13 2   
    27    12    24 1   
    28    14    15 1   
    29    14    36 1   
    30    14    37 1   
    31    15    38 1   
    32    16    17 1   
    33    16    39 1   
    34    16    40 1   
    35    16    41 1   
    36    17    18 1   
    37    18    19 1   
    38    18    20 1   
    39    18    42 1   
    40    19    43 1   
    41    19    44 1   
    42    19    45 1   
    43    20    21 1   
    44    20    24 1   
    45    20    46 1   
    46    21    22 1   
    47    21    23 1   
    48    24    47 1   
@<TRIPOS>SUBSTRUCTURE
     1 M9F         1 TEMP              0 ****  ****    0 ROOT
