@<TRIPOS>MOLECULE
M9M
   60    63     1     0     0
SMALL
bcc


@<TRIPOS>ATOM
      1 CAL        -0.1280    0.1860   -0.1110 c3        1 M9M     -0.107900
      2 CAN         1.3980    0.0970   -0.1290 c3        1 M9M      0.162300
      3 NBB         2.0340   -0.0950    1.1670 n3        1 M9M     -0.720600
      4 CAB         1.9950   -1.4650    1.6290 c3        1 M9M      0.151100
      5 CAO         1.5380    0.8600    2.1470 c3        1 M9M      0.162300
      6 CAM         0.0170    0.9760    2.2490 c3        1 M9M     -0.107900
      7 CBA        -0.5990    1.2390    0.8830 c3        1 M9M     -0.061700
      8 CAK        -2.1180    1.2540    0.9480 c3        1 M9M     -0.076400
      9 CAI        -2.6530    2.5050    1.6110 c3        1 M9M     -0.079400
     10 CAH        -4.1670    2.5100    1.6220 c3        1 M9M     -0.077400
     11 CAJ        -4.7030    3.7610    2.2920 c3        1 M9M     -0.035100
     12 CAW        -6.1900    3.7990    2.2800 ca        1 M9M     -0.074300
     13 CAG        -6.9130    3.5790    3.4550 ca        1 M9M     -0.117000
     14 CAD        -6.8820    4.0630    1.0930 ca        1 M9M     -0.122000
     15 CAE        -8.2720    4.1110    1.0580 ca        1 M9M     -0.130000
     16 CAZ        -9.0240    3.8910    2.2280 ca        1 M9M      0.015600
     17 CAY        -8.3080    3.6190    3.4240 ca        1 M9M      0.067100
     18 OAS        -8.9580    3.3050    4.6110 os        1 M9M     -0.313900
     19 CAP       -10.2400    3.9060    4.7490 c3        1 M9M      0.063400
     20 CAU       -11.0890    3.8500    3.4900 c         1 M9M      0.675500
     21 OAC       -12.3290    3.7770    3.5600 o         1 M9M     -0.620500
     22 NBC       -10.4360    3.9540    2.2600 n         1 M9M     -0.365000
     23 CAQ       -11.2060    3.9620    1.0360 c3        1 M9M      0.063700
     24 CAX       -11.3010    2.6330    0.3570 cc        1 M9M      0.283600
     25 CAF       -12.1660    1.5370    0.7930 cc        1 M9M     -0.343600
     26 CAV       -11.9490    0.5400   -0.1370 cd        1 M9M      0.263000
     27 CAA       -12.4420   -0.8170   -0.3540 c3        1 M9M     -0.139400
     28 OAT       -11.0010    1.0310   -1.0760 os        1 M9M     -0.120100
     29 NAR       -10.6390    2.2540   -0.7560 nd        1 M9M     -0.351300
     30 HAL1       -0.4880    0.4470   -1.1390 hc        1 M9M      0.044700
     31 HAL2       -0.5670   -0.8080    0.1620 hc        1 M9M      0.044700
     32 HAN1        1.7090   -0.7390   -0.8140 h1        1 M9M      0.049950
     33 HAN2        1.8100    1.0590   -0.5480 h1        1 M9M      0.049950
     34 HBA        -0.2430    2.2460    0.5240 hc        1 M9M      0.049700
     35 HAB1        2.5830   -1.5430    2.5810 h1        1 M9M      0.030367
     36 HAB2        0.9550   -1.8470    1.8200 h1        1 M9M      0.030367
     37 HAB3        2.4770   -2.1210    0.8570 h1        1 M9M      0.030367
     38 HAO1        1.9570    1.8660    1.8550 h1        1 M9M      0.049950
     39 HAO2        1.9540    0.5930    3.1580 h1        1 M9M      0.049950
     40 HAM1       -0.2350    1.8130    2.9490 hc        1 M9M      0.044700
     41 HAM2       -0.4090    0.0320    2.6790 hc        1 M9M      0.044700
     42 HAK1       -2.4790    0.3490    1.5040 hc        1 M9M      0.042200
     43 HAK2       -2.5290    1.1870   -0.0950 hc        1 M9M      0.042200
     44 HAI1       -2.2710    2.5700    2.6630 hc        1 M9M      0.040200
     45 HAI2       -2.2780    3.4110    1.0650 hc        1 M9M      0.040200
     46 HAH1       -4.5550    2.4530    0.5700 hc        1 M9M      0.046200
     47 HAH2       -4.5440    1.6020    2.1630 hc        1 M9M      0.046200
     48 HAJ1       -4.3060    4.6670    1.7580 hc        1 M9M      0.049700
     49 HAJ2       -4.3250    3.8080    3.3480 hc        1 M9M      0.049700
     50 HAG        -6.4030    3.3620    4.4060 ha        1 M9M      0.153000
     51 HAD        -6.3160    4.2310    0.1640 ha        1 M9M      0.140000
     52 HAE        -8.7700    4.3050    0.0960 ha        1 M9M      0.151000
     53 HAP1      -10.7360    3.3150    5.5670 h1        1 M9M      0.089700
     54 HAP2      -10.1240    4.9810    5.0530 h1        1 M9M      0.089700
     55 HAQ1      -10.7660    4.7300    0.3370 h1        1 M9M      0.086700
     56 HAQ2      -12.2610    4.2830    1.2920 h1        1 M9M      0.086700
     57 HAF       -12.8160    1.5520    1.6620 ha        1 M9M      0.188000
     58 HAA1      -11.6140   -1.5570   -0.2070 hc        1 M9M      0.066367
     59 HAA2      -12.8310   -0.9290   -1.3980 hc        1 M9M      0.066367
     60 HAA3      -13.2640   -1.0420    0.3690 hc        1 M9M      0.066367
@<TRIPOS>BOND
     1    1    2 1
     2    1    7 1
     3    1   30 1
     4    1   31 1
     5    2    3 1
     6    2   32 1
     7    2   33 1
     8    3    4 1
     9    3    5 1
    10    4   35 1
    11    4   36 1
    12    4   37 1
    13    5    6 1
    14    5   38 1
    15    5   39 1
    16    6    7 1
    17    6   40 1
    18    6   41 1
    19    7    8 1
    20    7   34 1
    21    8    9 1
    22    8   42 1
    23    8   43 1
    24    9   10 1
    25    9   44 1
    26    9   45 1
    27   10   11 1
    28   10   46 1
    29   10   47 1
    30   11   12 1
    31   11   48 1
    32   11   49 1
    33   12   13 ar
    34   12   14 ar
    35   13   17 ar
    36   13   50 1
    37   14   15 ar
    38   14   51 1
    39   15   16 ar
    40   15   52 1
    41   16   17 ar
    42   16   22 1
    43   17   18 1
    44   18   19 1
    45   19   20 1
    46   19   53 1
    47   19   54 1
    48   20   21 2
    49   20   22 1
    50   22   23 1
    51   23   24 1
    52   23   55 1
    53   23   56 1
    54   24   25 1
    55   24   29 2
    56   25   26 2
    57   25   57 1
    58   26   27 1
    59   26   28 1
    60   27   58 1
    61   27   59 1
    62   27   60 1
    63   28   29 1
@<TRIPOS>SUBSTRUCTURE
     1 M9M         1 TEMP              0 ****  ****    0 ROOT
