@<TRIPOS>MOLECULE
M9P
   31    29     1     0     0
SMALL
bcc


@<TRIPOS>ATOM
      1 N           2.1880    1.2380    0.6600 n4        1 M9P     -0.093000
      2 F1         -1.2450   -0.5250   -1.2980 f         1 M9P     -0.153333
      3 F2         -0.6700    1.1250    0.0080 f         1 M9P     -0.153333
      4 F3         -2.0310   -0.4010    0.7420 f         1 M9P     -0.153333
      5 CA          3.5090    1.3650    0.0500 cx        1 M9P     -0.192000
      6 CB          4.7600    1.0190    0.8320 cx        1 M9P     -0.184000
      7 CD          2.9920    1.4750    4.3650 c3        1 M9P     -0.123000
      8 NE          1.9210    1.1850    3.4740 n2        1 M9P     -0.418000
      9 CG          4.4700    2.4490    0.4970 cx        1 M9P     -0.184000
     10 CI          0.3860   -0.9850    0.4830 c1        1 M9P     -0.005000
     11 CZ          0.8150    0.5780    3.8900 c2        1 M9P      0.231000
     12 NH1         0.5620    0.1770    5.2020 n3        1 M9P     -0.384000
     13 NH2        -0.1850    0.2950    2.8920 n3        1 M9P     -0.384000
     14 OI2         0.1090   -2.1720    0.9210 oh        1 M9P     -0.142000
     15 HN          1.5550    1.9330    0.2580 hn        1 M9P      0.269000
     16 HA          2.2320    1.3810    1.7040 hn        1 M9P      0.269000
     17 HNE         4.1790    3.1390    1.3120 hc        1 M9P      0.144000
     18 HNH1        1.2980    0.2020    5.8650 hn        1 M9P      0.220750
     19 HNHA       -0.2420   -0.3550    5.4280 hn        1 M9P      0.220750
     20 HNH2       -1.0250   -0.1060    3.2650 hn        1 M9P      0.220750
     21 HB          5.5650    0.4800    0.2980 hc        1 M9P      0.144000
     22 HBA         4.6720    0.6920    1.8860 hc        1 M9P      0.144000
     23 HD          3.7890    1.9810    3.7550 h1        1 M9P      0.084333
     24 HDA         2.6910    2.1720    5.1950 h1        1 M9P      0.084333
     25 HG          3.4390    0.5540    4.8310 h1        1 M9P      0.084333
     26 HGA         5.0610    2.9620   -0.2850 hc        1 M9P      0.144000
     27 HOI2        0.9320   -2.6230    1.2130 ho        1 M9P      0.299000
     28 HNA         1.7860    0.2860    0.4840 hn        1 M9P      0.269000
     29 HI          3.4670    1.1060   -1.0340 hx        1 M9P      0.171000
     30 HNHB       -0.4040    1.1040    2.3420 hn        1 M9P      0.220750
     31 CF         -0.8990   -0.2340   -0.0080 c3        1 M9P      0.349000
@<TRIPOS>BOND
     1    1    5 1
     2    1   15 1
     3    1   16 1
     4    1   28 1
     5    2   31 1
     6    3   31 1
     7    4   31 1
     8    5    6 1
     9    5    9 1
    10    5   29 1
    11    6    9 1
    12    6   21 1
    13    6   22 1
    14    7    8 1
    15    7   23 1
    16    7   24 1
    17    7   25 1
    18    8   11 1
    19    9   17 1
    20    9   26 1
    21   10   14 1
    22   10   31 1
    23   11   12 1
    24   11   13 1
    25   12   18 1
    26   12   19 1
    27   13   20 1
    28   13   30 1
    29   14   27 1
@<TRIPOS>SUBSTRUCTURE
     1 M9P         1 TEMP              0 ****  ****    0 ROOT
