@<TRIPOS>MOLECULE
molecule
   31    32     1     0     0
SMALL
bcc


@<TRIPOS>ATOM
      1 C13          0.0000     0.0000     0.0000 c2         1 MA0      -0.028000
      2 C12          1.3300     0.0000     0.0000 ce         1 MA0      -0.358600
      3 C11          2.0640     0.0000     1.2720 ce         1 MA0       0.398500
      4 N10          3.3600     0.0000     1.2720 nh         1 MA0      -0.083100
      5 C9           4.0930     0.0010     2.5410 c3         1 MA0       0.049300
      6 C1           4.9870     1.2550     2.6420 c3         1 MA0      -0.090400
      7 C2           6.2180     0.7240     3.4070 c3         1 MA0      -0.033100
      8 C3           6.2690    -0.7570     3.0940 ca         1 MA0      -0.078300
      9 C8           5.0480    -1.1720     2.5970 ca         1 MA0      -0.154300
     10 C7           4.8610    -2.4960     2.2390 ca         1 MA0      -0.136000
     11 C4           7.3040    -1.6680     3.2340 ca         1 MA0      -0.089000
     12 C5           7.1220    -2.9890     2.8790 ca         1 MA0      -0.112000
     13 C6           5.8960    -3.4070     2.3800 ca         1 MA0       0.124100
     14 O6           5.7120    -4.7080     2.0310 oh         1 MA0      -0.510100
     15 C10          4.0930     0.0010     0.0030 c3         1 MA0      -0.024400
     16 H131        -0.5420     0.0000    -0.9380 ha         1 MA0       0.151000
     17 H132        -0.5420     0.0000     0.9380 ha         1 MA0       0.151000
     18 H12          1.8720     0.0000    -0.9380 ha         1 MA0       0.171000
     19 H11          1.5230     0.0000     2.2110 h4         1 MA0       0.062800
     20 H9           3.4060    -0.0360     3.3780 h1         1 MA0       0.100700
     21 H1C1         5.2770     1.5860     1.6530 hc         1 MA0       0.073700
     22 H1C2         4.4890     2.0200     3.2260 hc         1 MA0       0.073700
     23 H2C1         7.1140     1.2050     3.0320 hc         1 MA0       0.081200
     24 H2C2         6.0740     0.8650     4.4710 hc         1 MA0       0.081200
     25 H7           3.9040    -2.8210     1.8500 ha         1 MA0       0.134000
     26 H4           8.2610    -1.3410     3.6240 ha         1 MA0       0.156000
     27 H5           7.9330    -3.6970     2.9910 ha         1 MA0       0.167000
     28 H6           5.3560    -5.1830     2.7640 ho         1 MA0       0.435000
     29 H101         3.8160    -0.8730    -0.5740 h1         1 MA0       0.094700
     30 H102         5.1580    -0.0200     0.2010 h1         1 MA0       0.094700
     31 H103         3.8470     0.8960    -0.5560 h1         1 MA0       0.094700
@<TRIPOS>BOND
     1     1     2 2
     2     1    16 1
     3     1    17 1
     4     2     3 1
     5     2    18 1
     6     3     4 2
     7     3    19 1
     8     4     5 1
     9     4    15 1
    10     5     6 1
    11     5     9 1
    12     5    20 1
    13     6     7 1
    14     6    21 1
    15     6    22 1
    16     7     8 1
    17     7    23 1
    18     7    24 1
    19     8     9 ar
    20     8    11 ar
    21     9    10 ar
    22    10    13 ar
    23    10    25 1
    24    11    12 ar
    25    11    26 1
    26    12    13 ar
    27    12    27 1
    28    13    14 1
    29    14    28 1
    30    15    29 1
    31    15    30 1
    32    15    31 1
@<TRIPOS>SUBSTRUCTURE
     1 MA0         1 TEMP              0 ****  ****    0 ROOT
