@<TRIPOS>MOLECULE
MA0
   31    33     1     0     0
SMALL
bcc


@<TRIPOS>ATOM
      1 C13          0.0000     0.0000     0.0000 c2         1 MA0       0.241000
      2 C12          1.3300     0.0000     0.0000 c3         1 MA0      -0.340000
      3 C11          2.0640     0.0000     1.2720 c2         1 MA0      -0.361000
      4 N10          3.3600     0.0000     1.2720 n3         1 MA0       0.509000
      5 C9           4.0930     0.0010     2.5410 c3         1 MA0      -0.065000
      6 C1           4.9870     1.2550     2.6420 c3         1 MA0      -0.108000
      7 C2           6.2180     0.7240     3.4070 c3         1 MA0      -0.038000
      8 C3           6.2690    -0.7570     3.0940 ca         1 MA0      -0.081000
      9 C8           5.0480    -1.1720     2.5970 ca         1 MA0      -0.162000
     10 C7           4.8610    -2.4960     2.2390 ca         1 MA0      -0.125000
     11 C4           7.3040    -1.6680     3.2340 ca         1 MA0      -0.044000
     12 C5           7.1220    -2.9890     2.8790 ca         1 MA0      -0.093000
     13 C6           5.8960    -3.4070     2.3800 ca         1 MA0       0.102000
     14 O6           5.7120    -4.7080     2.0310 oh         1 MA0      -0.247000
     15 C10          4.0930     0.0010     0.0030 c3         1 MA0      -0.239000
     16 H131        -0.5420    -0.0000     0.9380 ha         1 MA0       0.107000
     17 H132        -0.5420     0.0000    -0.9380 ha         1 MA0       0.107000
     18 H12          1.8720     0.0000    -0.9380 hc         1 MA0       0.138000
     19 H11          1.9180    -0.8750     0.6510 DU         1 MA0       0.343000
     20 H9           3.4060    -0.0360     3.3780 h1         1 MA0       0.138000
     21 H1C1         5.2770     1.5860     1.6530 hc         1 MA0       0.079000
     22 H1C2         4.4890     2.0200     3.2260 hc         1 MA0       0.079000
     23 H2C1         7.1140     1.2050     3.0320 hc         1 MA0       0.083000
     24 H2C2         6.0740     0.8650     4.4710 hc         1 MA0       0.083000
     25 H7           3.9040    -2.8210     1.8500 ha         1 MA0       0.100000
     26 H4           8.2610    -1.3410     3.6240 ha         1 MA0       0.122000
     27 H5           7.9330    -3.6970     2.9910 ha         1 MA0       0.133000
     28 H6           5.3570    -5.1830     2.7640 ho         1 MA0       0.217000
     29 H101         3.8490    -0.8950    -0.5550 h1         1 MA0       0.107667
     30 H102         5.1580     0.0240     0.2010 h1         1 MA0       0.107667
     31 H103         3.8140     0.8730    -0.5750 h1         1 MA0       0.107667
@<TRIPOS>BOND
     1     1     2 1   
     2     1    16 1   
     3     1    17 1   
     4     2     3 1   
     5     2    18 1   
     6     2    19 1   
     7     3     4 1   
     8     3    19 1   
     9     4     5 1   
    10     4    15 1   
    11     5     6 1   
    12     5     9 1   
    13     5    20 1   
    14     6     7 1   
    15     6    21 1   
    16     6    22 1   
    17     7     8 1   
    18     7    23 1   
    19     7    24 1   
    20     8     9 1   
    21     8    11 1   
    22     9    10 1   
    23    10    13 1   
    24    10    25 1   
    25    11    12 1   
    26    11    26 1   
    27    12    13 1   
    28    12    27 1   
    29    13    14 1   
    30    14    28 1   
    31    15    29 1   
    32    15    30 1   
    33    15    31 1   
@<TRIPOS>SUBSTRUCTURE
     1 MA0         1 TEMP              0 ****  ****    0 ROOT
