@<TRIPOS>MOLECULE
molecule
   79    81     1     0     0
SMALL
bcc


@<TRIPOS>ATOM
      1 C1           0.0000     0.0000     0.0000 c3         1 MA4       0.291900
      2 C2           1.5300     0.0000     0.0000 c3         1 MA4       0.124100
      3 C3           2.0290     0.0000     1.4490 c3         1 MA4       0.110100
      4 C4           1.3770     1.1700     2.1910 c3         1 MA4       0.108100
      5 C5          -0.1430     1.0800     2.0270 c3         1 MA4       0.120100
      6 C6          -0.8060     2.2240     2.7950 c3         1 MA4       0.148400
      7 O2           2.0080    -1.1660    -0.6730 oh         1 MA4      -0.587800
      8 O3           3.4500     0.1490     1.4660 oh         1 MA4      -0.611800
      9 O5          -0.4830     1.1750     0.6460 os         1 MA4      -0.396600
     10 O6          -2.2240     2.1400     2.6450 oh         1 MA4      -0.606800
     11 O1          -0.4740    -1.1540     0.6970 os         1 MA4      -0.407600
     12 O4           1.7110     1.1020     3.5790 oh         1 MA4      -0.604800
     13 C10         -3.9950    -3.1340    -0.1040 c3         1 MA4       0.313900
     14 C20         -3.3870    -2.4070    -1.3050 c3         1 MA4       0.097100
     15 C30         -1.9190    -2.0890    -1.0050 c3         1 MA4       0.113100
     16 C40         -1.8420    -1.3300     0.3240 c3         1 MA4       0.100100
     17 C50         -2.5690    -2.1360     1.4020 c3         1 MA4       0.149100
     18 C60         -2.4710    -1.4010     2.7410 c3         1 MA4       0.144400
     19 O20         -3.4680    -3.2420    -2.4620 oh         1 MA4      -0.597800
     20 O30         -1.3750    -1.2810    -2.0510 oh         1 MA4      -0.611800
     21 O50         -3.9390    -2.2950     1.0480 os         1 MA4      -0.403600
     22 O60         -3.1000    -2.1800     3.7590 oh         1 MA4      -0.606800
     23 C21         -7.3300    -4.5150     0.5290 c3         1 MA4      -0.083400
     24 C31         -7.8760    -5.2360     1.7620 c3         1 MA4      -0.080400
     25 C41         -9.3400    -5.6160     1.5250 c3         1 MA4      -0.080400
     26 C51         -9.8850    -6.3370     2.7580 c3         1 MA4      -0.084400
     27 C61        -11.3490    -6.7170     2.5210 c3         1 MA4      -0.077400
     28 C12        -11.8950    -7.4370     3.7540 c3         1 MA4      -0.069700
     29 C22        -13.3580    -7.8190     3.5170 c3         1 MA4      -0.075900
     30 C32        -13.9050    -8.5390     4.7500 c3         1 MA4      -0.079400
     31 C42        -13.0840    -9.8030     5.0070 c3         1 MA4      -0.079400
     32 C52        -11.6220    -9.4240     5.2450 c3         1 MA4      -0.079400
     33 C62        -11.0750    -8.7030     4.0100 c3         1 MA4      -0.075900
     34 H11         -0.3580    -0.0190    -1.0220 h2         1 MA4       0.127700
     35 H21          1.8900     0.8880    -0.5050 h1         1 MA4       0.061700
     36 H31          1.7510    -0.9310     1.9270 h1         1 MA4       0.075700
     37 H41          1.7300     2.1050     1.7730 h1         1 MA4       0.053700
     38 H51         -0.4890     0.1300     2.4170 h1         1 MA4       0.080700
     39 H61         -0.5490     2.1510     3.8450 h1         1 MA4       0.035200
     40 H62         -0.4570     3.1720     2.4030 h1         1 MA4       0.035200
     41 HO2          2.6720    -0.9190    -1.2950 ho         1 MA4       0.409000
     42 HO3          3.8360    -0.5750     1.9290 ho         1 MA4       0.414000
     43 HO6         -2.6230     2.9250     2.9830 ho         1 MA4       0.406000
     44 HO4          2.3870     1.7310     3.7710 ho         1 MA4       0.412000
     45 H101        -3.4340    -4.0410     0.0870 h2         1 MA4       0.044700
     46 H201        -3.9270    -1.4850    -1.4800 h1         1 MA4       0.069700
     47 H301        -1.3580    -3.0130    -0.9260 h1         1 MA4       0.063700
     48 H401        -2.3200    -0.3640     0.2150 h1         1 MA4       0.088700
     49 H501        -2.1070    -3.1120     1.4900 h1         1 MA4       0.058700
     50 H601        -1.4290    -1.2480     2.9940 h1         1 MA4       0.048200
     51 H602        -2.9680    -0.4410     2.6620 h1         1 MA4       0.048200
     52 HO20        -3.9780    -2.8090    -3.1270 ho         1 MA4       0.414000
     53 HO30        -1.1490    -1.8280    -2.7850 ho         1 MA4       0.418000
     54 HO60        -2.8870    -1.8230     4.6050 ho         1 MA4       0.404000
     55 H111        -5.2860    -5.0300     0.9490 h1         1 MA4       0.041700
     56 H112        -5.8000    -3.4780     1.6260 h1         1 MA4       0.041700
     57 H211        -7.9110    -3.6190     0.3470 hc         1 MA4       0.051200
     58 H212        -7.3970    -5.1700    -0.3320 hc         1 MA4       0.051200
     59 H311        -7.8080    -4.5810     2.6230 hc         1 MA4       0.042700
     60 H312        -7.2950    -6.1320     1.9440 hc         1 MA4       0.042700
     61 H411        -9.9210    -4.7200     1.3440 hc         1 MA4       0.042200
     62 H412        -9.4080    -6.2700     0.6650 hc         1 MA4       0.042200
     63 H511        -9.3040    -7.2330     2.9390 hc         1 MA4       0.043200
     64 H512        -9.8170    -5.6820     3.6190 hc         1 MA4       0.043200
     65 H611       -11.4170    -7.3710     1.6600 hc         1 MA4       0.041700
     66 H612       -11.9300    -5.8200     2.3390 hc         1 MA4       0.041700
     67 H121       -11.8300    -6.7860     4.6180 hc         1 MA4       0.050700
     68 H221       -13.9390    -6.9220     3.3370 hc         1 MA4       0.041450
     69 H222       -13.4240    -8.4750     2.6580 hc         1 MA4       0.041450
     70 H321       -13.8350    -7.8840     5.6100 hc         1 MA4       0.039700
     71 H322       -14.9400    -8.8110     4.5800 hc         1 MA4       0.039700
     72 H421       -13.1500   -10.4560     4.1450 hc         1 MA4       0.039200
     73 H422       -13.4710   -10.3120     5.8820 hc         1 MA4       0.039200
     74 H521       -11.5560    -8.7670     6.1040 hc         1 MA4       0.039700
     75 H522       -11.0420   -10.3210     5.4250 hc         1 MA4       0.039700
     76 H621       -10.0400    -8.4330     4.1800 hc         1 MA4       0.041450
     77 H622       -11.1460    -9.3580     3.1510 hc         1 MA4       0.041450
     78 O10         -5.3560    -3.4620    -0.3860 os         1 MA4      -0.390600
     79 C11         -5.8670    -4.1340     0.7670 c3         1 MA4       0.121400
@<TRIPOS>BOND
     1     1     2 1
     2     1     9 1
     3     1    11 1
     4     1    34 1
     5     2     3 1
     6     2     7 1
     7     2    35 1
     8     3     4 1
     9     3     8 1
    10     3    36 1
    11     4     5 1
    12     4    12 1
    13     4    37 1
    14     5     6 1
    15     5     9 1
    16     5    38 1
    17     6    10 1
    18     6    39 1
    19     6    40 1
    20     7    41 1
    21     8    42 1
    22    10    43 1
    23    11    16 1
    24    12    44 1
    25    13    14 1
    26    13    78 1
    27    13    21 1
    28    13    45 1
    29    14    15 1
    30    14    19 1
    31    14    46 1
    32    15    16 1
    33    15    20 1
    34    15    47 1
    35    16    17 1
    36    16    48 1
    37    17    18 1
    38    17    21 1
    39    17    49 1
    40    18    22 1
    41    18    50 1
    42    18    51 1
    43    78    79 1
    44    19    52 1
    45    20    53 1
    46    22    54 1
    47    79    23 1
    48    79    55 1
    49    79    56 1
    50    23    24 1
    51    23    57 1
    52    23    58 1
    53    24    25 1
    54    24    59 1
    55    24    60 1
    56    25    26 1
    57    25    61 1
    58    25    62 1
    59    26    27 1
    60    26    63 1
    61    26    64 1
    62    27    28 1
    63    27    65 1
    64    27    66 1
    65    28    29 1
    66    28    33 1
    67    28    67 1
    68    29    30 1
    69    29    68 1
    70    29    69 1
    71    30    31 1
    72    30    70 1
    73    30    71 1
    74    31    32 1
    75    31    72 1
    76    31    73 1
    77    32    33 1
    78    32    74 1
    79    32    75 1
    80    33    76 1
    81    33    77 1
@<TRIPOS>SUBSTRUCTURE
     1 MA4         1 TEMP              0 ****  ****    0 ROOT
