@<TRIPOS>MOLECULE
MA4
   79    75     1     0     0
SMALL
bcc


@<TRIPOS>ATOM
      1 C1         -0.5100    0.4670    1.5880 c3        1 MA4      0.076000
      2 C2          2.9860   -0.1430    0.8250 c1        1 MA4      0.022000
      3 C3          2.6350   -1.3840    1.6070 c3        1 MA4     -0.118000
      4 C4          1.8010   -1.0000    2.8540 c3        1 MA4     -0.027000
      5 C5          0.3450   -1.4660    2.7360 c3        1 MA4     -0.056000
      6 C6         -3.1820    2.3400    2.5960 c1        1 MA4     -0.057500
      7 O2          2.2280    0.2530   -0.1330 oh        1 MA4     -0.142000
      8 O3          3.8110   -2.0570    2.0160 oh        1 MA4     -0.306000
      9 O5         -0.5820   -0.3900    2.7020 os        1 MA4     -0.287000
     10 O6         -3.7830    1.8500    1.5760 oh        1 MA4     -0.170000
     11 O1         -0.7030   -0.3280    0.4340 os        1 MA4     -0.346000
     12 O4          2.4010   -1.5450    4.0130 oh        1 MA4     -0.308000
     13 C10        -2.9810   -4.2690   -2.4980 c2        1 MA4      0.086000
     14 C20        -4.0280   -3.2730   -2.2130 c1        1 MA4     -0.043000
     15 C30        -2.0860   -0.7170   -1.4460 c3        1 MA4     -0.033500
     16 C40        -2.0660   -0.5780    0.0770 c3        1 MA4     -0.041000
     17 C50        -2.5450   -1.8530    0.7810 c3        1 MA4     -0.033500
     18 C60        -5.5110   -0.2350    1.7250 c1        1 MA4     -0.057500
     19 O20        -4.7690   -2.6970   -3.0820 oh        1 MA4     -0.102000
     20 O30        -1.2200   -1.7370   -1.9090 oh        1 MA4     -0.368500
     21 O50        -3.9480   -1.9880    0.6740 oh        1 MA4     -0.368500
     22 O60        -5.0110   -0.9650    2.6510 oh        1 MA4     -0.170000
     23 C21        -7.5320   -4.5230    0.1520 c3        1 MA4     -0.160000
     24 C31        -8.4410   -4.5390    1.3630 c3        1 MA4     -0.157000
     25 C41        -9.1520   -5.8690    1.5010 c3        1 MA4     -0.157000
     26 C51       -10.0490   -5.8840    2.7200 c3        1 MA4     -0.161000
     27 C61       -10.7640   -7.2100    2.8550 c3        1 MA4     -0.120000
     28 C12       -11.5900   -7.2790    4.1360 c3        1 MA4     -0.161000
     29 C22       -12.5320   -8.4760    4.0880 c3        1 MA4     -0.174000
     30 C32       -13.1200   -8.7640    5.4520 c3        1 MA4     -0.158000
     31 C42       -12.0280   -9.0530    6.4590 c3        1 MA4     -0.179000
     32 C52       -11.0200   -7.9220    6.5310 c3        1 MA4     -0.220000
     33 C62       -10.7380   -7.1770    5.3180 c1        1 MA4     -0.053000
     34 H11        -1.3120    1.2430    1.7560 h2        1 MA4      0.132500
     35 H21         0.5120    0.9180    1.4550 h2        1 MA4      0.132500
     36 H31         2.0930   -2.1540    0.9820 h1        1 MA4      0.110000
     37 H41         1.8360    0.1130    3.0330 h1        1 MA4      0.139000
     38 H51         0.1880   -2.1190    1.8370 h1        1 MA4      0.101500
     39 H61        -3.6900    2.2440    3.5870 ha        1 MA4      0.018000
     40 H62         0.0520   -2.0260    3.6680 h1        1 MA4      0.101500
     41 HO2         1.4220   -0.2840   -0.3230 ho        1 MA4      0.175000
     42 HO3         4.3740   -1.4050    2.4600 ho        1 MA4      0.228000
     43 HO6        -4.6550    1.3650    1.7260 ho        1 MA4      0.209500
     44 HO4         2.5820   -2.4800    3.8410 ho        1 MA4      0.213000
     45 H101       -4.1530   -2.3300   -0.2120 ho        1 MA4      0.227500
     46 H201       -1.8090    0.2610   -1.9210 h1        1 MA4      0.100750
     47 H301       -3.1120   -1.0360   -1.7790 h1        1 MA4      0.100750
     48 H401       -2.7210    0.2880    0.3780 h1        1 MA4      0.134000
     49 H501       -2.0200   -2.7470    0.3540 h1        1 MA4      0.100750
     50 H601       -6.0530   -0.7190    0.8850 ha        1 MA4      0.018000
     51 H602       -2.3370   -1.7730    1.8840 h1        1 MA4      0.100750
     52 HO20       -4.6580   -2.9930   -4.0150 ho        1 MA4      0.184000
     53 HO30       -0.3380   -1.5340   -1.5750 ho        1 MA4      0.227500
     54 HO60       -5.1050   -1.9390    2.5420 ho        1 MA4      0.209500
     55 H111       -1.9500   -3.8410   -2.4230 h4        1 MA4      0.146000
     56 H112       -6.1470   -3.2110   -0.8830 hc        1 MA4      0.071000
     57 H211       -7.5490   -2.3670   -0.0980 hc        1 MA4      0.071000
     58 H212       -6.1850   -3.0010    0.9140 hc        1 MA4      0.071000
     59 H311       -8.1380   -4.7210   -0.7720 hc        1 MA4      0.080500
     60 H312       -6.7800   -5.3520    0.2380 hc        1 MA4      0.080500
     61 H411       -7.8390   -4.3390    2.2880 hc        1 MA4      0.077500
     62 H412       -9.1980   -3.7160    1.2760 hc        1 MA4      0.077500
     63 H511       -9.7600   -6.0680    0.5800 hc        1 MA4      0.077500
     64 H512       -8.3940   -6.6920    1.5820 hc        1 MA4      0.077500
     65 H611      -10.8020   -5.0560    2.6430 hc        1 MA4      0.092000
     66 H612       -9.4440   -5.6980    3.6480 hc        1 MA4      0.092000
     67 H121      -10.0170   -8.0460    2.8530 hc        1 MA4      0.078000
     68 H221      -11.4470   -7.3680    1.9780 hc        1 MA4      0.078000
     69 H222      -12.2180   -6.3310    4.1990 hc        1 MA4      0.136000
     70 H321      -13.3550   -8.2770    3.3540 hc        1 MA4      0.083500
     71 H322      -11.9720   -9.3770    3.7240 hc        1 MA4      0.083500
     72 H421      -13.7290   -7.8870    5.7950 hc        1 MA4      0.080000
     73 H422      -13.8110   -9.6450    5.3850 hc        1 MA4      0.080000
     74 H521      -11.5030  -10.0020    6.1690 hc        1 MA4      0.081500
     75 H522      -12.4810   -9.2240    7.4700 hc        1 MA4      0.081500
     76 H621      -10.0390   -8.3130    6.9250 hc        1 MA4      0.134500
     77 H622      -11.3620   -7.1420    7.2760 hc        1 MA4      0.134500
     78 O10        -3.1930   -5.4740   -2.6480 o         1 MA4     -0.262000
     79 C11        -6.8180   -3.2040    0.0130 c3        1 MA4     -0.214000
@<TRIPOS>BOND
     1    1    9 1   
     2    1   11 1   
     3    1   34 1   
     4    1   35 1   
     5    2    3 1   
     6    2    7 1   
     7    3    4 1   
     8    3    8 1   
     9    3   36 1   
    10    4    5 1   
    11    4   12 1   
    12    4   37 1   
    13    5    9 1   
    14    5   38 1   
    15    5   40 1   
    16    6   10 1   
    17    6   39 1   
    18    7   41 1   
    19    8   42 1   
    20   10   43 1   
    21   11   16 1   
    22   12   44 1   
    23   13   14 1   
    24   13   55 1   
    25   13   78 1   
    26   14   19 1   
    27   15   16 1   
    28   15   20 1   
    29   15   46 1   
    30   15   47 1   
    31   16   17 1   
    32   16   48 1   
    33   17   21 1   
    34   17   49 1   
    35   17   51 1   
    36   18   22 1   
    37   18   50 1   
    38   19   52 1   
    39   20   53 1   
    40   21   45 1   
    41   22   54 1   
    42   23   24 1   
    43   23   59 1   
    44   23   60 1   
    45   23   79 1   
    46   24   25 1   
    47   24   61 1   
    48   24   62 1   
    49   25   26 1   
    50   25   63 1   
    51   25   64 1   
    52   26   27 1   
    53   26   65 1   
    54   26   66 1   
    55   27   28 1   
    56   27   67 1   
    57   27   68 1   
    58   28   29 1   
    59   28   33 1   
    60   28   69 1   
    61   29   30 1   
    62   29   70 1   
    63   29   71 1   
    64   30   31 1   
    65   30   72 1   
    66   30   73 1   
    67   31   32 1   
    68   31   74 1   
    69   31   75 1   
    70   32   33 1   
    71   32   76 1   
    72   32   77 1   
    73   56   79 1   
    74   57   79 1   
    75   58   79 1   
@<TRIPOS>SUBSTRUCTURE
     1 MA4         1 TEMP              0 ****  ****    0 ROOT
