@<TRIPOS>MOLECULE
molecule
   67    69     1     0     0
SMALL
bcc


@<TRIPOS>ATOM
      1 C42          0.0000     0.0000     0.0000 c3         1 MA5      -0.075900
      2 C32          1.5300     0.0000     0.0000 c3         1 MA5      -0.079400
      3 C22          2.0400     0.0000     1.4430 c3         1 MA5      -0.079400
      4 C12          1.5290    -1.2490     2.1640 c3         1 MA5      -0.079400
      5 C62         -0.0000    -1.2470     2.1650 c3         1 MA5      -0.075900
      6 C52         -0.5110    -1.2480     0.7230 c3         1 MA5      -0.069700
      7 C61         -2.0410    -1.2470     0.7230 c3         1 MA5      -0.078400
      8 C11         -2.5510    -2.5540     1.3340 c3         1 MA5       0.119400
      9 O10         -3.9800    -2.5540     1.3350 os         1 MA5      -0.389600
     10 C10         -4.3940    -3.7920     1.9140 c3         1 MA5       0.314900
     11 C20         -5.9170    -3.8040     2.0580 c3         1 MA5       0.095100
     12 O20         -6.3290    -2.7080     2.8790 oh         1 MA5      -0.597800
     13 C30         -6.3480    -5.1220     2.7090 c3         1 MA5       0.113100
     14 O30         -7.7730    -5.2150     2.7150 oh         1 MA5      -0.612800
     15 O50         -3.9800    -4.8680     1.0730 os         1 MA5      -0.403600
     16 C50         -4.2500    -6.0870     1.7640 c3         1 MA5       0.149100
     17 C60         -3.6500    -7.2580     0.9840 c3         1 MA5       0.142400
     18 O60         -2.2280    -7.1190     0.9340 oh         1 MA5      -0.606800
     19 C40         -5.7610    -6.2840     1.8990 c3         1 MA5       0.101100
     20 O1          -6.0250    -7.5170     2.5710 os         1 MA5      -0.402600
     21 C1          -7.3280    -7.9390     2.1660 c3         1 MA5       0.294900
     22 O5          -7.2690    -8.4470     0.8340 os         1 MA5      -0.402600
     23 C5          -6.2370    -9.4330     0.7940 c3         1 MA5       0.117100
     24 C6          -6.0070    -9.8680    -0.6540 c3         1 MA5       0.147400
     25 O6          -5.5090    -8.7630    -1.4110 oh         1 MA5      -0.607800
     26 C4          -6.6490   -10.6460     1.6310 c3         1 MA5       0.092100
     27 O4          -5.6260   -11.6410     1.5650 oh         1 MA5      -0.590800
     28 C3          -6.8430   -10.2050     3.0870 c3         1 MA5       0.111100
     29 O3          -7.3690   -11.2900     3.8530 oh         1 MA5      -0.587800
     30 C2          -7.8260    -9.0300     3.1160 c3         1 MA5       0.099100
     31 O2          -7.9110    -8.5070     4.4420 oh         1 MA5      -0.573800
     32 H421        -0.3600    -0.0040    -1.0220 hc         1 MA5       0.042200
     33 H422        -0.3600     0.8840     0.5120 hc         1 MA5       0.042200
     34 H321         1.8900     0.8860    -0.5090 hc         1 MA5       0.040450
     35 H322         1.8900    -0.8860    -0.5090 hc         1 MA5       0.040450
     36 H221         1.6760     0.8840     1.9530 hc         1 MA5       0.039700
     37 H222         3.1230    -0.0030     1.4420 hc         1 MA5       0.039700
     38 H121         1.8880    -2.1330     1.6510 hc         1 MA5       0.040450
     39 H122         1.8900    -1.2470     3.1860 hc         1 MA5       0.040450
     40 H621        -0.3610    -2.1330     2.6750 hc         1 MA5       0.042200
     41 H622        -0.3590    -0.3600     2.6730 hc         1 MA5       0.042200
     42 H52         -0.1460    -2.1320     0.2140 hc         1 MA5       0.054700
     43 H611        -2.4010    -0.4100     1.3080 hc         1 MA5       0.051700
     44 H612        -2.4020    -1.1590    -0.2940 hc         1 MA5       0.051700
     45 H111        -2.1910    -3.3910     0.7490 h1         1 MA5       0.042200
     46 H112        -2.1900    -2.6420     2.3520 h1         1 MA5       0.042200
     47 H10         -3.9410    -3.9070     2.8910 h2         1 MA5       0.045700
     48 H20         -6.3730    -3.7200     1.0790 h1         1 MA5       0.068700
     49 H3          -6.9240    -2.1590     2.3950 ho         1 MA5       0.413000
     50 H30         -5.9730    -5.1640     3.7240 h1         1 MA5       0.064700
     51 H2          -8.1220    -4.6470     3.3830 ho         1 MA5       0.418000
     52 H50         -3.8060    -6.0430     2.7510 h1         1 MA5       0.060700
     53 H601        -3.9050    -8.1880     1.4760 h1         1 MA5       0.050200
     54 H602        -4.0470    -7.2620    -0.0240 h1         1 MA5       0.050200
     55 H60         -1.8510    -7.8890     0.5410 ho         1 MA5       0.405000
     56 H40         -6.2120    -6.3000     0.9140 h1         1 MA5       0.088700
     57 H1          -8.0100    -7.0980     2.1980 h2         1 MA5       0.123700
     58 H5          -5.3240    -9.0120     1.1980 h1         1 MA5       0.087700
     59 H61         -6.9430   -10.2060    -1.0820 h1         1 MA5       0.036200
     60 H62         -5.2870   -10.6770    -0.6780 h1         1 MA5       0.036200
     61 HO6         -5.5210    -8.9800    -2.3290 ho         1 MA5       0.407000
     62 H7          -7.5790   -11.0490     1.2490 h1         1 MA5       0.036700
     63 HO4         -6.0210   -12.4930     1.4900 ho         1 MA5       0.411000
     64 H6          -5.8920    -9.8910     3.4990 h1         1 MA5       0.124700
     65 HO3         -8.2570   -11.4620     3.5860 ho         1 MA5       0.390000
     66 H4          -8.8030    -9.3700     2.7930 h1         1 MA5       0.044700
     67 HO2         -8.7610    -8.6980     4.8020 ho         1 MA5       0.405000
@<TRIPOS>BOND
     1     1     2 1
     2     1     6 1
     3     1    32 1
     4     1    33 1
     5     2     3 1
     6     2    34 1
     7     2    35 1
     8     3     4 1
     9     3    36 1
    10     3    37 1
    11     4     5 1
    12     4    38 1
    13     4    39 1
    14     5     6 1
    15     5    40 1
    16     5    41 1
    17     6     7 1
    18     6    42 1
    19     7     8 1
    20     7    43 1
    21     7    44 1
    22     8     9 1
    23     8    45 1
    24     8    46 1
    25     9    10 1
    26    10    11 1
    27    10    15 1
    28    10    47 1
    29    11    12 1
    30    11    13 1
    31    11    48 1
    32    12    49 1
    33    13    14 1
    34    13    19 1
    35    13    50 1
    36    14    51 1
    37    15    16 1
    38    16    17 1
    39    16    19 1
    40    16    52 1
    41    17    18 1
    42    17    53 1
    43    17    54 1
    44    18    55 1
    45    19    20 1
    46    19    56 1
    47    20    21 1
    48    21    22 1
    49    21    30 1
    50    21    57 1
    51    22    23 1
    52    23    24 1
    53    23    26 1
    54    23    58 1
    55    24    25 1
    56    24    59 1
    57    24    60 1
    58    25    61 1
    59    26    27 1
    60    26    28 1
    61    26    62 1
    62    27    63 1
    63    28    29 1
    64    28    30 1
    65    28    64 1
    66    29    65 1
    67    30    31 1
    68    30    66 1
    69    31    67 1
@<TRIPOS>SUBSTRUCTURE
     1 MA5         1 TEMP              0 ****  ****    0 ROOT
