@<TRIPOS>MOLECULE
MA5
   67    69     1     0     0
SMALL
bcc


@<TRIPOS>ATOM
      1 C42        -0.0040   -0.3100   -0.2070 c3        1 MA5     -0.073900
      2 C32         1.4890   -0.0570   -0.2180 c3        1 MA5     -0.076400
      3 C22         1.9740    0.4490    1.1250 c3        1 MA5     -0.077400
      4 C12         1.5820   -0.4990    2.2390 c3        1 MA5     -0.076400
      5 C62         0.0880   -0.7500    2.2500 c3        1 MA5     -0.073900
      6 C52        -0.3930   -1.2760    0.9050 c3        1 MA5     -0.062700
      7 C61        -1.8990   -1.4870    0.9000 c3        1 MA5     -0.082400
      8 C11        -2.2870   -2.7140    1.7060 c3        1 MA5      0.136400
      9 O10        -3.7060   -2.8570    1.5480 os        1 MA5     -0.423600
     10 C10        -4.2450   -3.9440    2.2640 c3        1 MA5      0.307900
     11 C20        -5.7750   -3.8700    2.1070 c3        1 MA5      0.086100
     12 O20        -6.3080   -2.8380    2.9160 oh        1 MA5     -0.604800
     13 C30        -6.4180   -5.1800    2.5940 c3        1 MA5      0.121100
     14 O30        -7.7940   -5.1860    2.2550 oh        1 MA5     -0.605800
     15 O50        -3.7200   -5.0750    1.5790 os        1 MA5     -0.444600
     16 C50        -4.2290   -6.3100    2.0840 c3        1 MA5      0.107100
     17 C60        -3.5060   -7.4070    1.2960 c3        1 MA5      0.140400
     18 O60        -2.1070   -7.2780    1.4210 oh        1 MA5     -0.592800
     19 C40        -5.7560   -6.3800    1.8910 c3        1 MA5      0.128100
     20 O1         -6.1620   -7.6050    2.5040 os        1 MA5     -0.458600
     21 C1         -7.4230   -8.1000    2.0740 c3        1 MA5      0.302900
     22 O5         -7.2690   -8.5410    0.7460 os        1 MA5     -0.441600
     23 C5         -6.4150   -9.6740    0.5550 c3        1 MA5      0.098100
     24 C6         -6.4780   -9.9880   -0.9420 c3        1 MA5      0.140400
     25 O6         -5.9420   -8.9290   -1.7050 oh        1 MA5     -0.596800
     26 C4         -6.8990  -10.8650    1.3930 c3        1 MA5      0.129100
     27 O4         -5.9830  -11.9240    1.1820 oh        1 MA5     -0.594800
     28 C3         -6.9250  -10.4520    2.8730 c3        1 MA5      0.073100
     29 O3         -7.4310  -11.5610    3.5970 oh        1 MA5     -0.605800
     30 C2         -7.8190   -9.2180    3.0560 c3        1 MA5      0.095100
     31 O2         -7.7740   -8.7750    4.3960 oh        1 MA5     -0.590800
     32 H421       -0.3200   -0.7320   -1.1960 hc        1 MA5      0.040450
     33 H422       -0.5500    0.6590   -0.0630 hc        1 MA5      0.040450
     34 H321        2.0270   -1.0060   -0.4760 hc        1 MA5      0.040450
     35 H322        1.7330    0.6950   -1.0130 hc        1 MA5      0.040450
     36 H221        3.0890    0.5630    1.1030 hc        1 MA5      0.039700
     37 H222        1.5360    1.4610    1.3240 hc        1 MA5      0.039700
     38 H121        1.8960   -0.0700    3.2260 hc        1 MA5      0.040450
     39 H122        2.1240   -1.4730    2.1090 hc        1 MA5      0.040450
     40 H621       -0.1600   -1.4900    3.0540 hc        1 MA5      0.040450
     41 H622       -0.4500    0.2040    2.4910 hc        1 MA5      0.040450
     42 H52         0.1130   -2.2630    0.7080 hc        1 MA5      0.050700
     43 H611       -2.2590   -1.6200   -0.1550 hc        1 MA5      0.055700
     44 H612       -2.4160   -0.5850    1.3170 hc        1 MA5      0.055700
     45 H111       -1.7780   -3.6350    1.3200 h1        1 MA5      0.039200
     46 H112       -2.0500   -2.5840    2.7950 h1        1 MA5      0.039200
     47 H10        -3.9280   -3.9470    3.3430 h2        1 MA5      0.054700
     48 H20        -6.0350   -3.6910    1.0260 h1        1 MA5      0.079700
     49 H3         -5.9190   -2.0120    2.5990 ho        1 MA5      0.426000
     50 H30        -6.3030   -5.2730    3.7100 h1        1 MA5      0.062700
     51 H2         -8.1790   -4.3930    2.6520 ho        1 MA5      0.427000
     52 H50        -3.9820   -6.3960    3.1790 h1        1 MA5      0.062700
     53 H601       -3.7530   -8.4050    1.7460 h1        1 MA5      0.065200
     54 H602       -3.8140   -7.3770    0.2180 h1        1 MA5      0.065200
     55 H60        -1.8650   -6.4220    1.0440 ho        1 MA5      0.412000
     56 H40        -6.0270   -6.3850    0.8000 h1        1 MA5      0.087700
     57 H1         -8.2060   -7.2880    2.0230 h2        1 MA5      0.126700
     58 H5         -5.3660   -9.3950    0.8510 h1        1 MA5      0.074700
     59 H61        -5.8270  -10.8770   -1.1570 h1        1 MA5      0.064700
     60 H62        -7.5380  -10.1950   -1.2470 h1        1 MA5      0.064700
     61 HO6        -6.4790   -8.1470   -1.5200 ho        1 MA5      0.408000
     62 H7         -7.9290  -11.1840    1.0720 h1        1 MA5      0.059700
     63 HO4        -6.2200  -12.6190    1.8120 ho        1 MA5      0.426000
     64 H6         -5.8800  -10.2210    3.2270 h1        1 MA5      0.062700
     65 HO3        -7.6270  -11.2440    4.4890 ho        1 MA5      0.424000
     66 H4         -8.8980   -9.4930    2.8800 h1        1 MA5      0.102700
     67 HO2        -6.9040   -8.3760    4.5420 ho        1 MA5      0.420000
@<TRIPOS>BOND
     1    1    2 1   
     2    1    6 1   
     3    1   32 1   
     4    1   33 1   
     5    2    3 1   
     6    2   34 1   
     7    2   35 1   
     8    3    4 1   
     9    3   36 1   
    10    3   37 1   
    11    4    5 1   
    12    4   38 1   
    13    4   39 1   
    14    5    6 1   
    15    5   40 1   
    16    5   41 1   
    17    6    7 1   
    18    6   42 1   
    19    7    8 1   
    20    7   43 1   
    21    7   44 1   
    22    8    9 1   
    23    8   45 1   
    24    8   46 1   
    25    9   10 1   
    26   10   11 1   
    27   10   15 1   
    28   10   47 1   
    29   11   12 1   
    30   11   13 1   
    31   11   48 1   
    32   12   49 1   
    33   13   14 1   
    34   13   19 1   
    35   13   50 1   
    36   14   51 1   
    37   15   16 1   
    38   16   17 1   
    39   16   19 1   
    40   16   52 1   
    41   17   18 1   
    42   17   53 1   
    43   17   54 1   
    44   18   55 1   
    45   19   20 1   
    46   19   56 1   
    47   20   21 1   
    48   21   22 1   
    49   21   30 1   
    50   21   57 1   
    51   22   23 1   
    52   23   24 1   
    53   23   26 1   
    54   23   58 1   
    55   24   25 1   
    56   24   59 1   
    57   24   60 1   
    58   25   61 1   
    59   26   27 1   
    60   26   28 1   
    61   26   62 1   
    62   27   63 1   
    63   28   29 1   
    64   28   30 1   
    65   28   64 1   
    66   29   65 1   
    67   30   31 1   
    68   30   66 1   
    69   31   67 1   
@<TRIPOS>SUBSTRUCTURE
     1 MA5         1 TEMP              0 ****  ****    0 ROOT
