@<TRIPOS>MOLECULE
molecule
   54    57     1     0     0
SMALL
bcc


@<TRIPOS>ATOM
      1 C5           0.0000     0.0000     0.0000 ca         1 MA9      -0.294500
      2 C6           1.3950     0.0000     0.0000 ca         1 MA9      -0.008000
      3 C7           2.0920     0.0000     1.2070 ca         1 MA9      -0.145000
      4 C8           1.3950    -0.0010     2.4150 ca         1 MA9      -0.048000
      5 C10         -0.7220     0.0000     3.6700 cp         1 MA9       0.517800
      6 C15         -2.8420     4.6080     6.0440 c3         1 MA9      -0.073400
      7 C17         -2.8350     6.0460     8.1070 ca         1 MA9      -0.189300
      8 C21         -2.5190     8.6350     9.0780 ca         1 MA9       0.157900
      9 C24         -3.8990     6.6800     8.7420 ca         1 MA9       0.148900
     10 C26         -2.0350     3.6090     8.2140 c3         1 MA9       0.088500
     11 C28         -2.2450     2.2080     7.6180 c3         1 MA9       0.212800
     12 F25         -5.0750     6.0570     8.8930 f          1 MA9      -0.119900
     13 C23         -3.7400     7.9770     9.2290 ca         1 MA9      -0.177000
     14 F22         -2.3660     9.8800     9.5460 f          1 MA9      -0.086900
     15 C19         -1.4570     7.9940     8.4410 ca         1 MA9       0.099900
     16 F           -0.2840     8.6250     8.2950 f          1 MA9      -0.096900
     17 C18         -1.6150     6.6970     7.9530 ca         1 MA9      -0.129000
     18 C16         -3.0050     4.6310     7.5740 c3         1 MA9      -0.030400
     19 C14         -3.0390     3.2040     5.4750 c3         1 MA9       0.219800
     20 N27         -2.2190     3.5550     9.6670 nz         1 MA9      -0.802600
     21 N           -2.1530     2.2520     6.1510 nh         1 MA9      -0.811300
     22 C12         -1.7730     1.0770     5.4930 ca         1 MA9       0.659200
     23 C11         -1.0790     1.1820     4.2870 ca         1 MA9      -0.360600
     24 N29         -2.0830    -0.1380     6.0320 nb         1 MA9      -0.758000
     25 C30         -1.6790    -1.2170     5.3350 ca         1 MA9       0.670900
     26 N31         -1.0070    -1.2220     4.1670 nb         1 MA9      -0.664000
     27 C9          -0.0020    -0.0010     2.4190 cp         1 MA9      -0.197500
     28 C32         -0.6980    -0.0010     1.2080 ca         1 MA9       0.002000
     29 S           -0.8740     0.0000    -1.5110 sy         1 MA9       1.126300
     30 O           -0.0080    -0.5760    -2.5310 o          1 MA9      -0.588800
     31 O4          -2.2000    -0.5600    -1.2910 o          1 MA9      -0.588800
     32 C           -1.0950     1.7230    -1.8940 c3         1 MA9      -0.233300
     33 H6           1.9360     0.0010    -0.9380 ha         1 MA9       0.164000
     34 H7           3.1750     0.0000     1.2070 ha         1 MA9       0.151000
     35 H8           1.9380    -0.0010     3.3530 ha         1 MA9       0.139000
     36 H151        -1.8470     4.9540     5.7910 hc         1 MA9       0.079200
     37 H152        -3.5750     5.2720     5.6030 hc         1 MA9       0.079200
     38 H26         -1.0190     3.9220     8.0020 hx         1 MA9       0.117700
     39 H281        -3.2250     1.8430     7.9020 h1         1 MA9       0.066700
     40 H282        -1.4840     1.5390     8.0020 h1         1 MA9       0.066700
     41 H23         -4.5650     8.4750     9.7240 ha         1 MA9       0.190000
     42 H18         -0.7900     6.1980     7.4580 ha         1 MA9       0.163000
     43 H16         -4.0140     4.3090     7.8010 hc         1 MA9       0.078700
     44 H141        -2.8110     3.2140     4.4160 h1         1 MA9       0.069200
     45 H142        -4.0680     2.9000     5.6220 h1         1 MA9       0.069200
     46 H271        -1.8920     4.4080    10.0770 hn         1 MA9       0.457467
     47 H272        -3.1910     3.4370     9.8760 hn         1 MA9       0.457467
     48 H11         -0.5610     2.1000     4.0380 ha         1 MA9       0.166000
     49 H30         -1.9210    -2.1850     5.7570 h5         1 MA9       0.066100
     50 H32         -1.7810    -0.0010     1.2070 ha         1 MA9       0.158000
     51 H1          -1.7780     2.1670    -1.1800 h1         1 MA9       0.101700
     52 H2          -1.5020     1.8210    -2.8930 h1         1 MA9       0.101700
     53 H3          -0.1390     2.2300    -1.8420 h1         1 MA9       0.101700
     54 H273        -1.6600     2.8180    10.0480 hn         1 MA9       0.457467
@<TRIPOS>BOND
     1     1    29 1
     2     1    28 ar
     3     1     2 ar
     4     2     3 ar
     5     2    33 1
     6     3     4 ar
     7     3    34 1
     8     4    27 ar
     9     4    35 1
    10     5    26 ar
    11     5    27 1
    12     5    23 ar
    13     6    19 1
    14     6    18 1
    15     6    36 1
    16     6    37 1
    17     7    18 1
    18     7    17 ar
    19     7     9 ar
    20     8    15 ar
    21     8    13 ar
    22     8    14 1
    23     9    12 1
    24     9    13 ar
    25    10    11 1
    26    10    18 1
    27    10    20 1
    28    10    38 1
    29    11    21 1
    30    11    39 1
    31    11    40 1
    32    13    41 1
    33    15    17 ar
    34    15    16 1
    35    17    42 1
    36    18    43 1
    37    19    21 1
    38    19    44 1
    39    19    45 1
    40    20    46 1
    41    20    47 1
    42    21    22 1
    43    22    24 ar
    44    22    23 ar
    45    23    48 1
    46    24    25 ar
    47    25    26 ar
    48    25    49 1
    49    27    28 ar
    50    28    50 1
    51    29    32 1
    52    29    31 2
    53    29    30 2
    54    32    51 1
    55    32    52 1
    56    32    53 1
    57    54    20 1
@<TRIPOS>SUBSTRUCTURE
     1 MA9         1 TEMP              0 ****  ****    0 ROOT
