@<TRIPOS>MOLECULE
MAE
   10     9     1     0     0
SMALL
bcc


@<TRIPOS>ATOM
      1 C1         -0.1840    0.0810    0.1070 c         1 MAE      0.916800
      2 O1          0.9760    0.4990    0.4230 o         1 MAE     -0.877300
      3 O2         -1.0860   -0.0870    0.9840 o         1 MAE     -0.877300
      4 C2         -0.5240   -0.0430   -1.3510 ce        1 MAE     -0.207200
      5 C3         -0.6440   -1.0640   -2.1930 cf        1 MAE     -0.207200
      6 C4         -0.5080   -2.5540   -2.0590 c         1 MAE      0.916800
      7 O3         -1.5680   -3.2580   -2.0430 o         1 MAE     -0.877300
      8 O4          0.6400   -3.0930   -2.1140 o         1 MAE     -0.877300
      9 H2         -0.6940    0.9740   -1.7660 ha        1 MAE      0.045000
     10 H3         -0.9120   -0.8220   -3.2430 ha        1 MAE      0.045000
@<TRIPOS>BOND
     1    1    2 1   
     2    1    3 1   
     3    1    4 1   
     4    4    5 2   
     5    4    9 1   
     6    5    6 1   
     7    5   10 1   
     8    6    7 1   
     9    6    8 1   
@<TRIPOS>SUBSTRUCTURE
     1 MAE         1 TEMP              0 ****  ****    0 ROOT
