@<TRIPOS>MOLECULE
molecule
   10     9     1     0     0
SMALL
bcc


@<TRIPOS>ATOM
      1 C1           0.0000     0.0000     0.0000 c          1 MAE       0.921800
      2 O1           1.2650     0.0000     0.0000 o          1 MAE      -0.855050
      3 O2          -0.6830     0.0000     1.0590 o          1 MAE      -0.855050
      4 C2          -0.6900    -0.0050    -1.3320 ce         1 MAE      -0.480700
      5 C3          -0.8870    -1.0110    -2.1820 cf         1 MAE      -0.480700
      6 C4          -0.4510    -2.4500    -2.0540 c          1 MAE       0.921800
      7 O3          -0.9570    -3.2880    -2.8520 o          1 MAE      -0.855050
      8 O4           0.4110    -2.7950    -1.1720 o          1 MAE      -0.855050
      9 H2           0.2390    -0.5240    -1.1260 ha         1 MAE       0.269500
     10 H3          -1.0360    -1.6150    -1.2960 ha         1 MAE       0.269500
@<TRIPOS>BOND
     1     1     2 1
     2     1     3 1
     3     1     4 1
     4     4     5 2
     5     4     9 1
     6     5     6 1
     7     5    10 1
     8     6     7 1
     9     6     8 1
@<TRIPOS>SUBSTRUCTURE
     1 MAE         1 TEMP              0 ****  ****    0 ROOT
