@<TRIPOS>MOLECULE
MAF
   23    23     1     0     0
SMALL
bcc


@<TRIPOS>ATOM
      1 C1          0.1100   -0.0450   -0.0570 c3        1 MAF      0.311900
      2 C2          1.6450   -0.1920    0.1080 c3        1 MAF      0.119600
      3 F2          2.3010    0.7420   -0.6780 f         1 MAF     -0.234300
      4 C3          2.0470   -0.0490    1.5900 c3        1 MAF      0.079100
      5 O3          3.4470    0.0360    1.7460 oh        1 MAF     -0.589800
      6 C4          1.3680    1.1770    2.2240 c3        1 MAF      0.086100
      7 O4          1.6560    1.2580    3.6080 oh        1 MAF     -0.592800
      8 C5         -0.1530    1.0410    2.0660 c3        1 MAF      0.142100
      9 O5         -0.4760    1.0100    0.6710 os        1 MAF     -0.436600
     10 C6         -0.8860    2.2510    2.6450 c3        1 MAF      0.135400
     11 O6         -2.1940    1.8150    2.9810 oh        1 MAF     -0.600800
     12 O1L        -0.4720   -1.2380    0.4120 oh        1 MAF     -0.626800
     13 H1         -0.1580    0.1680   -1.1320 h2        1 MAF      0.089700
     14 H2          1.9390   -1.2220   -0.2480 h1        1 MAF      0.091700
     15 H3          1.7480   -0.9840    2.1430 h1        1 MAF      0.113700
     16 HA          3.7640    0.7410    1.1650 ho        1 MAF      0.414000
     17 H4          1.7290    2.1140    1.7150 h1        1 MAF      0.054700
     18 HB          2.5890    1.0220    3.7130 ho        1 MAF      0.422000
     19 H5         -0.5140    0.0940    2.5550 h1        1 MAF      0.084700
     20 H6C1       -0.9310    3.0790    1.8890 h1        1 MAF      0.048700
     21 H6C2       -0.3470    2.5970    3.5690 h1        1 MAF      0.048700
     22 H6         -2.6770    2.5970    3.2700 ho        1 MAF      0.404000
     23 H1L        -1.4280   -1.0970    0.4480 ho        1 MAF      0.434000
@<TRIPOS>BOND
     1    1    2 1   
     2    1    9 1   
     3    1   12 1   
     4    1   13 1   
     5    2    3 1   
     6    2    4 1   
     7    2   14 1   
     8    4    5 1   
     9    4    6 1   
    10    4   15 1   
    11    5   16 1   
    12    6    7 1   
    13    6    8 1   
    14    6   17 1   
    15    7   18 1   
    16    8    9 1   
    17    8   10 1   
    18    8   19 1   
    19   10   11 1   
    20   10   20 1   
    21   10   21 1   
    22   11   22 1   
    23   12   23 1   
@<TRIPOS>SUBSTRUCTURE
     1 MAF         1 TEMP              0 ****  ****    0 ROOT
