@<TRIPOS>MOLECULE
molecule
   23    23     1     0     0
SMALL
bcc


@<TRIPOS>ATOM
      1 C1           0.0000     0.0000     0.0000 c3         1 MAF       0.304900
      2 C2           1.5300     0.0000     0.0000 c3         1 MAF       0.125600
      3 F2           1.9970     1.1440    -0.6580 f          1 MAF      -0.221300
      4 C3           2.0290     0.0000     1.4480 c3         1 MAF       0.107100
      5 O3           3.4510     0.1500     1.4650 oh         1 MAF      -0.594800
      6 C4           1.3760     1.1700     2.1920 c3         1 MAF       0.116100
      7 O4           1.7140     1.1020     3.5780 oh         1 MAF      -0.602800
      8 C5          -0.1410     1.0800     2.0270 c3         1 MAF       0.130100
      9 O5          -0.4830     1.1740     0.6470 os         1 MAF      -0.373600
     10 C6          -0.8050     2.2230     2.7970 c3         1 MAF       0.151400
     11 O6          -2.2230     2.1380     2.6480 oh         1 MAF      -0.600800
     12 O1L         -0.4730    -1.1550     0.6980 oh         1 MAF      -0.621800
     13 H1          -0.3580    -0.0190    -1.0220 h2         1 MAF       0.077700
     14 H2           1.8910    -0.8880    -0.5060 h1         1 MAF       0.064700
     15 H3           1.7520    -0.9320     1.9250 h1         1 MAF       0.071700
     16 HA           3.8500    -0.6650     1.7200 ho         1 MAF       0.408000
     17 H4           1.7290     2.1050     1.7740 h1         1 MAF       0.065700
     18 HB           2.3750     1.7460     3.7730 ho         1 MAF       0.413000
     19 H5          -0.4870     0.1300     2.4170 h1         1 MAF       0.086700
     20 H6C1        -0.5470     2.1490     3.8460 h1         1 MAF       0.034700
     21 H6C2        -0.4570     3.1710     2.4050 h1         1 MAF       0.034700
     22 H6          -2.6370     2.7770     3.2040 ho         1 MAF       0.402000
     23 H1L         -1.0210    -1.6650     0.1250 ho         1 MAF       0.420000
@<TRIPOS>BOND
     1     1     2 1
     2     1     9 1
     3     1    12 1
     4     1    13 1
     5     2     3 1
     6     2     4 1
     7     2    14 1
     8     4     5 1
     9     4     6 1
    10     4    15 1
    11     5    16 1
    12     6     7 1
    13     6     8 1
    14     6    17 1
    15     7    18 1
    16     8     9 1
    17     8    10 1
    18     8    19 1
    19    10    11 1
    20    10    20 1
    21    10    21 1
    22    11    22 1
    23    12    23 1
@<TRIPOS>SUBSTRUCTURE
     1 MAF         1 TEMP              0 ****  ****    0 ROOT
