@<TRIPOS>MOLECULE
MAH
   19    18     1     0     0
SMALL
bcc


@<TRIPOS>ATOM
      1 C1          0.0260    0.5740    0.0790 c         1 MAH      0.906600
      2 C2          1.5090    0.7560    0.4100 c3        1 MAH     -0.186900
      3 C3          2.1350   -0.3150    1.3050 c3        1 MAH      0.193800
      4 C4          3.6430   -0.0940    1.4790 c3        1 MAH     -0.186900
      5 C5          4.0870    1.0800    2.3570 c         1 MAH      0.906600
      6 C6          1.4230   -0.3700    2.6510 c3        1 MAH     -0.110100
      7 O1         -0.4870   -0.5900    0.0200 o         1 MAH     -0.876550
      8 O2         -0.6630    1.6090   -0.1760 o         1 MAH     -0.876550
      9 O3          4.6920    2.0490    1.8030 o         1 MAH     -0.876550
     10 O4          3.9300    1.0220    3.6160 o         1 MAH     -0.876550
     11 O7          2.0390   -1.6060    0.6790 oh        1 MAH     -0.674800
     12 H21         1.6540    1.7510    0.9010 hc        1 MAH      0.031450
     13 H22         2.0600    0.7700   -0.5660 hc        1 MAH      0.031450
     14 H41         4.0710   -1.0280    1.9300 hc        1 MAH      0.031450
     15 H42         4.0940    0.0350    0.4620 hc        1 MAH      0.031450
     16 H61         1.7630   -1.2670    3.2210 hc        1 MAH      0.034033
     17 H62         0.3200   -0.4370    2.4880 hc        1 MAH      0.034033
     18 H63         1.6710    0.5440    3.2410 hc        1 MAH      0.034033
     19 HO7         1.1160   -1.7060    0.4040 ho        1 MAH      0.431000
@<TRIPOS>BOND
     1    1    2 1   
     2    1    7 1   
     3    1    8 1   
     4    2    3 1   
     5    2   12 1   
     6    2   13 1   
     7    3    4 1   
     8    3    6 1   
     9    3   11 1   
    10    4    5 1   
    11    4   14 1   
    12    4   15 1   
    13    5    9 1   
    14    5   10 1   
    15    6   16 1   
    16    6   17 1   
    17    6   18 1   
    18   11   19 1   
@<TRIPOS>SUBSTRUCTURE
     1 MAH         1 TEMP              0 ****  ****    0 ROOT
