@<TRIPOS>MOLECULE
molecule
   19    18     1     0     0
SMALL
bcc


@<TRIPOS>ATOM
      1 C1           0.0000     0.0000     0.0000 c          1 MAH       0.891600
      2 C2           1.5060     0.0000     0.0000 c3         1 MAH      -0.212900
      3 C3           2.0170     0.0000     1.4420 c3         1 MAH       0.191800
      4 C4           3.5460    -0.0000     1.4420 c3         1 MAH      -0.212900
      5 C5           4.0480    -0.0010     2.8620 c          1 MAH       0.891600
      6 C6           1.5070     1.2490     2.1630 c3         1 MAH      -0.037100
      7 O1          -0.6710     0.0010    -1.1620 o          1 MAH      -0.867550
      8 O2          -0.6040     0.0010     1.0460 o          1 MAH      -0.867550
      9 O3           3.2630     0.0000     3.7800 o          1 MAH      -0.867550
     10 O4           5.3680    -0.0010     3.1070 o          1 MAH      -0.867550
     11 O7           1.5410    -1.1660     2.1150 oh         1 MAH      -0.562800
     12 H21          1.8670    -0.8840    -0.5110 hc         1 MAH       0.019450
     13 H22          1.8670     0.8840    -0.5110 hc         1 MAH       0.019450
     14 H41          3.9070    -0.8850     0.9310 hc         1 MAH       0.019450
     15 H42          3.9080     0.8840     0.9320 hc         1 MAH       0.019450
     16 H61          2.3500     1.8390     2.5030 hc         1 MAH       0.028700
     17 H62          0.9050     0.9540     3.0140 hc         1 MAH       0.028700
     18 H63          0.9050     1.8390     1.4820 hc         1 MAH       0.028700
     19 HO7          1.8550    -1.9360     1.6700 ho         1 MAH       0.358000
@<TRIPOS>BOND
     1     1     2 1
     2     1     7 1
     3     1     8 1
     4     2     3 1
     5     2    12 1
     6     2    13 1
     7     3     4 1
     8     3     6 1
     9     3    11 1
    10     4     5 1
    11     4    14 1
    12     4    15 1
    13     5     9 1
    14     5    10 1
    15     6    16 1
    16     6    17 1
    17     6    18 1
    18    11    19 1
@<TRIPOS>SUBSTRUCTURE
     1 MAH         1 TEMP              0 ****  ****    0 ROOT
