@<TRIPOS>MOLECULE
MAJ
   25    26     1     0     0
SMALL
bcc


@<TRIPOS>ATOM
      1 C1           0.0000     0.0000     0.0000 ca         1 MAJ       0.024000
      2 C2           1.3820     0.0000     0.0000 ca         1 MAJ      -0.229500
      3 C3           2.0710     0.0000     1.1980 ca         1 MAJ       0.006000
      4 C4           1.3780     0.0020     2.3920 ca         1 MAJ      -0.091000
      5 C5          -0.6980     0.0080     1.1960 ca         1 MAJ      -0.111300
      6 C6          -0.0070     0.0020     2.3940 ca         1 MAJ       0.009700
      7 C7          -0.9870     0.0030     3.5480 c3         1 MAJ       0.018900
      8 C8          -2.3330    -0.4370     2.9360 c3         1 MAJ      -0.019400
      9 C9          -2.1870     0.0100     1.4630 c3         1 MAJ       0.036900
     10 S1           2.2630    -0.0020    -1.5260 sy         1 MAJ       0.933200
     11 O1           3.5460    -0.5480    -1.2460 o          1 MAJ      -0.496300
     12 O2           1.3820    -0.5480    -2.4980 o          1 MAJ      -0.496300
     13 N1           2.5100     1.5780    -1.9520 nz         1 MAJ      -0.132500
     14 H1          -0.5400    -0.0080    -0.9390 ha         1 MAJ       0.124000
     15 H3           3.1530    -0.0430     1.2010 ha         1 MAJ       0.127000
     16 H4           1.9190     0.0050     3.3310 ha         1 MAJ       0.131000
     17 H71         -1.0730     0.9990     3.9650 hc         1 MAJ       0.041200
     18 H72         -0.6720    -0.7030     4.3060 hc         1 MAJ       0.041200
     19 H81         -3.1490     0.0980     3.4080 hc         1 MAJ       0.037200
     20 H82         -2.4320    -1.5150     2.9900 hc         1 MAJ       0.037200
     21 H91         -2.6730    -0.7090     0.8150 hc         1 MAJ       0.035200
     22 H92         -2.5750     1.0150     1.3480 hc         1 MAJ       0.035200
     23 HN11         1.6270     2.0370    -2.0600 hn         1 MAJ       0.313467
     24 HN12         3.0140     1.6160    -2.8160 hn         1 MAJ       0.313467
     25 H13          3.0400     2.0380    -1.2370 hn         1 MAJ       0.313467
@<TRIPOS>BOND
     1     1     2 ar  
     2     1     5 ar  
     3     1    14 1   
     4     2     3 ar  
     5     2    10 1   
     6     3     4 ar  
     7     3    15 1   
     8     4     6 ar  
     9     4    16 1   
    10     5     6 ar  
    11     5     9 1   
    12     6     7 1   
    13     7     8 1   
    14     7    17 1   
    15     7    18 1   
    16     8     9 1   
    17     8    19 1   
    18     8    20 1   
    19     9    21 1   
    20     9    22 1   
    21    10    11 2   
    22    10    12 2   
    23    10    13 1   
    24    13    23 1   
    25    13    24 1   
    26    13    25 1   
@<TRIPOS>SUBSTRUCTURE
     1 MAJ         1 TEMP              0 ****  ****    0 ROOT
