@<TRIPOS>MOLECULE
molecule
   25    26     1     0     0
SMALL
bcc


@<TRIPOS>ATOM
      1 C1           0.0000     0.0000     0.0000 ca         1 MAJ      -0.021000
      2 C2           1.3820     0.0000     0.0000 ca         1 MAJ      -0.343500
      3 C3           2.0710     0.0000     1.1980 ca         1 MAJ      -0.031000
      4 C4           1.3780     0.0020     2.3920 ca         1 MAJ      -0.120000
      5 C5          -0.6980     0.0080     1.1960 ca         1 MAJ      -0.097300
      6 C6          -0.0070     0.0020     2.3940 ca         1 MAJ       0.011700
      7 C7          -0.9870     0.0030     3.5480 c3         1 MAJ      -0.055100
      8 C8          -2.3330    -0.4370     2.9360 c3         1 MAJ      -0.077400
      9 C9          -2.1870     0.0100     1.4630 c3         1 MAJ      -0.041100
     10 S1           2.2630    -0.0020    -1.5260 sy         1 MAJ       1.224200
     11 O1           3.5460    -0.5480    -1.2460 o          1 MAJ      -0.519800
     12 O2           1.3820    -0.5480    -2.4980 o          1 MAJ      -0.519800
     13 N1           2.5100     1.5780    -1.9520 nz         1 MAJ      -0.806500
     14 H1          -0.5400    -0.0080    -0.9390 ha         1 MAJ       0.154000
     15 H3           3.1530    -0.0430     1.2010 ha         1 MAJ       0.157000
     16 H4           1.9190     0.0050     3.3310 ha         1 MAJ       0.164000
     17 H71         -1.0730     0.9990     3.9650 hc         1 MAJ       0.078700
     18 H72         -0.6720    -0.7030     4.3060 hc         1 MAJ       0.078700
     19 H81         -3.1490     0.0980     3.4080 hc         1 MAJ       0.072700
     20 H82         -2.4320    -1.5150     2.9900 hc         1 MAJ       0.072700
     21 H91         -2.6730    -0.7090     0.8150 hc         1 MAJ       0.072200
     22 H92         -2.5750     1.0150     1.3480 hc         1 MAJ       0.072200
     23 HN11         1.6270     2.0370    -2.0600 hn         1 MAJ       0.491800
     24 HN12         3.0140     1.6160    -2.8160 hn         1 MAJ       0.491800
     25 H13          3.0400     2.0380    -1.2370 hn         1 MAJ       0.491800
@<TRIPOS>BOND
     1     7     8 1
     2     7     6 1
     3     8     9 1
     4     6     4 ar
     5     6     5 ar
     6     4     3 ar
     7     9     5 1
     8     5     1 ar
     9     3     2 ar
    10     1     2 ar
    11     2    10 1
    12    12    10 2
    13    10    11 2
    14    10    13 1
    15     1    14 1
    16     3    15 1
    17     4    16 1
    18     7    17 1
    19     7    18 1
    20     8    19 1
    21     8    20 1
    22     9    21 1
    23     9    22 1
    24    13    23 1
    25    13    24 1
    26    25    13 1
@<TRIPOS>SUBSTRUCTURE
     1 MAJ         1 TEMP              0 ****  ****    0 ROOT
