@<TRIPOS>MOLECULE
MAK
    8     7     1     0     0
SMALL
bcc


@<TRIPOS>ATOM
      1 C1          0.2190   -0.0110    1.3270 c         1 MAK      0.845600
      2 O1          0.6070    1.0730    1.8580 o         1 MAK     -0.862300
      3 O2          0.4140   -1.1380    1.8730 o         1 MAK     -0.862300
      4 C2         -0.5580    0.0480    0.0090 c         1 MAK      0.409100
      5 O3         -1.7980    0.1550    0.0280 o         1 MAK     -0.650100
      6 C3          0.1760   -0.0240   -1.3330 c         1 MAK      0.845600
      7 O4          0.3550   -1.1570   -1.8730 o         1 MAK     -0.862300
      8 O5          0.5450    1.0540   -1.8880 o         1 MAK     -0.862300
@<TRIPOS>BOND
     1    1    2 1   
     2    1    3 1   
     3    1    4 1   
     4    4    5 2   
     5    4    6 1   
     6    6    7 1   
     7    6    8 1   
@<TRIPOS>SUBSTRUCTURE
     1 MAK         1 TEMP              0 ****  ****    0 ROOT
