@<TRIPOS>MOLECULE
molecule
    8     7     1     0     0
SMALL
bcc


@<TRIPOS>ATOM
      1 C1           0.1970     0.0000     1.2910 c          1 MAK       0.795600
      2 O1           1.4100    -0.0000     1.2910 o          1 MAK      -0.851800
      3 O2          -0.4750    -0.0000     2.4570 o          1 MAK      -0.851800
      4 C2          -0.5480     0.0000     0.0000 c          1 MAK       0.387100
      5 O3          -1.7560     0.0000     0.0000 o          1 MAK      -0.572100
      6 C3           0.1970     0.0000    -1.2910 c          1 MAK       0.795600
      7 O4           1.4100     0.0000    -1.2910 o          1 MAK      -0.851800
      8 O5          -0.4750     0.0000    -2.4570 o          1 MAK      -0.851800
@<TRIPOS>BOND
     1     1     2 1
     2     1     3 1
     3     1     4 1
     4     4     5 2
     5     4     6 1
     6     6     7 1
     7     6     8 1
@<TRIPOS>SUBSTRUCTURE
     1 MAK         1 TEMP              0 ****  ****    0 ROOT
