@<TRIPOS>MOLECULE
MAM
   27    25     1     0     0
SMALL
bcc


@<TRIPOS>ATOM
      1 C1          0.7680   -0.5850    0.4250 c2        1 MAM     -0.322500
      2 C2          2.2120   -0.3270    0.5960 c3        1 MAM      0.042000
      3 C3          2.4760    0.6140    1.7850 c3        1 MAM     -0.042000
      4 C4          1.4680    1.7810    1.7500 c3        1 MAM      0.042000
      5 C5          0.0860    1.2670    1.6340 c2        1 MAM     -0.322500
      6 C6         -1.3410    3.4430    4.1990 c2        1 MAM      0.135000
      7 O1         -1.3030   -2.7460   -0.9860 oh        1 MAM     -0.338000
      8 O2          2.8190    0.2120   -0.5730 oh        1 MAM     -0.330500
      9 O3          3.7900    1.1290    1.7880 oh        1 MAM     -0.325000
     10 O4          1.5570    2.5770    2.9220 oh        1 MAM     -0.330500
     11 O5         -0.1860    0.1600    0.9720 os        1 MAM      0.128000
     12 O6         -2.1740    2.8780    3.4920 o         1 MAM     -0.301000
     13 H1         -1.6020   -3.5000   -1.5060 ho        1 MAM      0.199000
     14 H2          0.3590   -1.4210   -0.1580 h4        1 MAM      0.219500
     15 H3          2.7600   -1.3000    0.7610 h1        1 MAM      0.114500
     16 H4          2.3780    0.0540    2.7560 h1        1 MAM      0.136000
     17 H5          1.7040    2.4330    0.8550 h1        1 MAM      0.114500
     18 H61        -0.7920    1.7350    2.1020 h4        1 MAM      0.219500
     19 H62        -1.6420    4.1090    5.0350 h4        1 MAM      0.084500
     20 H71        -2.0500   -1.3130    0.2200 h1        1 MAM      0.072333
     21 H72        -3.1730   -1.8260   -1.1380 h1        1 MAM      0.072333
     22 H73        -2.9350   -2.9190    0.3090 h1        1 MAM      0.072333
     23 HO2         2.1890    0.8190   -0.9810 ho        1 MAM      0.215500
     24 HO3         4.0510    1.2850    0.8680 ho        1 MAM      0.222000
     25 HO4         2.5020    2.6770    3.1070 ho        1 MAM      0.215500
     26 HO6        -0.2480    3.3200    4.0380 h4        1 MAM      0.084500
     27 C7         -2.4420   -2.1810   -0.3710 c3        1 MAM     -0.078000
@<TRIPOS>BOND
     1    1    2 1   
     2    1   11 1   
     3    1   14 1   
     4    2    3 1   
     5    2    8 1   
     6    2   15 1   
     7    3    4 1   
     8    3    9 1   
     9    3   16 1   
    10    4    5 1   
    11    4   10 1   
    12    4   17 1   
    13    5   11 1   
    14    5   18 1   
    15    6   12 1   
    16    6   19 1   
    17    6   26 1   
    18    7   13 1   
    19    7   27 1   
    20    8   23 1   
    21    9   24 1   
    22   10   25 1   
    23   20   27 1   
    24   21   27 1   
    25   22   27 1   
@<TRIPOS>SUBSTRUCTURE
     1 MAM         1 TEMP              0 ****  ****    0 ROOT
