@<TRIPOS>MOLECULE
molecule
   27    27     1     0     0
SMALL
bcc


@<TRIPOS>ATOM
      1 C1           0.0000     0.0000     0.0000 c3         1 MAM       0.293900
      2 C2           1.5300     0.0000     0.0000 c3         1 MAM       0.112100
      3 C3           2.0320     0.0000     1.4450 c3         1 MAM       0.131100
      4 C4           1.3800     1.1710     2.1900 c3         1 MAM       0.119100
      5 C5          -0.1380     1.0840     2.0250 c3         1 MAM       0.129100
      6 C6          -0.7980     2.2300     2.7930 c3         1 MAM       0.149400
      7 O1          -0.4740    -1.1520     0.6980 os         1 MAM      -0.436600
      8 O2           2.0100     1.1660    -0.6720 oh         1 MAM      -0.575800
      9 O3           3.4530     0.1500     1.4650 oh         1 MAM      -0.595800
     10 O4           1.7160     1.1050     3.5770 oh         1 MAM      -0.607800
     11 O5          -0.4810     1.1770     0.6450 os         1 MAM      -0.388600
     12 O6          -2.2170     2.1470     2.6470 oh         1 MAM      -0.606800
     13 H1          -0.3580    -0.0200    -1.0220 h2         1 MAM       0.076700
     14 H2           1.8900    -0.8880    -0.5050 h1         1 MAM       0.048700
     15 H3           1.7540    -0.9310     1.9240 h1         1 MAM       0.066700
     16 H4           1.7340     2.1050     1.7710 h1         1 MAM       0.070700
     17 H5          -0.4850     0.1350     2.4160 h1         1 MAM       0.076700
     18 H61         -0.5390     2.1580     3.8430 h1         1 MAM       0.036200
     19 H62         -0.4500     3.1770     2.3990 h1         1 MAM       0.036200
     20 H71         -2.2870    -1.0890     1.6740 h1         1 MAM       0.044367
     21 H72         -2.2150    -0.1980     0.1480 h1         1 MAM       0.044367
     22 H73         -2.2820    -1.9650     0.1370 h1         1 MAM       0.044367
     23 HO2          2.3380     0.9260    -1.5230 ho         1 MAM       0.404000
     24 HO3          3.8520    -0.6660     1.7150 ho         1 MAM       0.403000
     25 HO4          2.3800     1.7460     3.7700 ho         1 MAM       0.412000
     26 HO6         -2.6280     2.8030     3.1850 ho         1 MAM       0.402000
     27 C7          -1.9010    -1.0980     0.6620 c3         1 MAM       0.109700
@<TRIPOS>BOND
     1     1     2 1
     2     1     7 1
     3     1    11 1
     4     1    13 1
     5     2     3 1
     6     2     8 1
     7     2    14 1
     8     3     4 1
     9     3     9 1
    10     3    15 1
    11     4     5 1
    12     4    10 1
    13     4    16 1
    14     5     6 1
    15     5    11 1
    16     5    17 1
    17     6    12 1
    18     6    18 1
    19     6    19 1
    20    27     7 1
    21    27    20 1
    22    27    21 1
    23    27    22 1
    24     8    23 1
    25     9    24 1
    26    10    25 1
    27    12    26 1
@<TRIPOS>SUBSTRUCTURE
     1 MAM         1 TEMP              0 ****  ****    0 ROOT
