@<TRIPOS>MOLECULE
MAO
   46    48     1     0     0
SMALL
bcc


@<TRIPOS>ATOM
      1 N            0.0000     0.0000     0.0000 nz         1 MAO       0.253900
      2 OA           1.4630     0.0000     0.0000 os         1 MAO      -0.264100
      3 CB           1.8770     0.0000     1.3670 c3         1 MAO       0.180400
      4 CG           3.4050    -0.0000     1.4400 c3         1 MAO       0.138800
      5 ND           3.9210     1.2450     0.8570 n3         1 MAO      -0.517600
      6 CE           5.3510     1.0280     0.5980 c3         1 MAO       0.163100
      7 C5'          3.8320     2.2700     1.9050 c3         1 MAO       0.124800
      8 C4'          4.3570     3.6010     1.3630 c3         1 MAO       0.156100
      9 O4'          3.5480     4.0320     0.2550 os         1 MAO      -0.399600
     10 C1'          3.4980     5.4730     0.3060 c3         1 MAO       0.151800
     11 N9           2.3360     5.9740    -0.4320 na         1 MAO       0.208000
     12 C4           2.2340     7.1910    -1.0570 ca         1 MAO       0.289800
     13 N3           3.0440     8.2330    -1.2210 nb         1 MAO      -0.677000
     14 C2           2.6490     9.2890    -1.9000 ca         1 MAO       0.708900
     15 N1           1.4520     9.3710    -2.4500 nb         1 MAO      -0.733000
     16 C6           0.5760     8.3770    -2.3440 ca         1 MAO       0.594200
     17 N6          -0.6760     8.4730    -2.9240 nv         1 MAO      -0.471500
     18 C5           0.9530     7.2280    -1.6290 ca         1 MAO      -0.253200
     19 N7           0.3460     6.0560    -1.3210 nc         1 MAO      -0.492100
     20 C8           1.1560     5.3190    -0.6200 cd         1 MAO       0.220700
     21 C2'          3.3600     5.7770     1.8180 c3         1 MAO       0.129100
     22 O2'          3.8540     7.0830     2.1230 oh         1 MAO      -0.528800
     23 C3'          4.2610     4.6860     2.4530 c3         1 MAO       0.130100
     24 O3'          5.5520     5.2170     2.7560 oh         1 MAO      -0.540800
     25 HN1         -0.3340    -0.8790     0.3440 hn         1 MAO       0.224467
     26 HN2         -0.3340     0.1410    -0.9330 hn         1 MAO       0.224467
     27 HB1          1.4920    -0.8840     1.8610 h1         1 MAO       0.019700
     28 HB2          1.4930     0.8840     1.8610 h1         1 MAO       0.019700
     29 HG1          3.7930    -0.8460     0.8850 h1         1 MAO       0.046200
     30 HG2          3.7180    -0.0720     2.4740 h1         1 MAO       0.046200
     31 HE1          5.4960     0.0410     0.1760 h1         1 MAO       0.021033
     32 HE2          5.7090     1.7750    -0.1000 h1         1 MAO       0.021033
     33 HE3          5.9020     1.1080     1.5270 h1         1 MAO       0.021033
     34 H5'1         2.7990     2.3870     2.2090 h1         1 MAO       0.016700
     35 H5'2         4.4280     1.9670     2.7570 h1         1 MAO       0.016700
     36 H4'          5.3870     3.4940     1.0440 h1         1 MAO       0.058700
     37 H1'          4.4150     5.8970    -0.0830 h2         1 MAO       0.083700
     38 H2           3.3350    10.1190    -2.0140 h5         1 MAO       0.002100
     39 HN61        -0.9620     9.3280    -3.3580 hn         1 MAO       0.277800
     40 HN62        -1.2960     7.6870    -2.9070 hn         1 MAO       0.277800
     41 H8           0.9260     4.3300    -0.2400 h5         1 MAO       0.010800
     42 H2'          2.3330     5.6600     2.1410 h1         1 MAO       0.015700
     43 HO2'         3.3270     7.4670     2.8040 ho         1 MAO       0.394000
     44 H3'          3.7930     4.2830     3.3430 h1         1 MAO       0.007700
     45 HO3'         5.7280     5.1110     3.6760 ho         1 MAO       0.396000
     46 HN3         -0.3340     0.7300     0.5980 hn         1 MAO       0.224467
@<TRIPOS>BOND
     1     1     2 1   
     2     1    25 1   
     3     1    26 1   
     4     1    46 1   
     5     2     3 1   
     6     3     4 1   
     7     3    27 1   
     8     3    28 1   
     9     4     5 1   
    10     4    29 1   
    11     4    30 1   
    12     5     6 1   
    13     5     7 1   
    14     6    31 1   
    15     6    32 1   
    16     6    33 1   
    17     7     8 1   
    18     7    34 1   
    19     7    35 1   
    20     8     9 1   
    21     8    23 1   
    22     8    36 1   
    23     9    10 1   
    24    10    11 1   
    25    10    21 1   
    26    10    37 1   
    27    11    12 1   
    28    11    20 1   
    29    12    13 ar  
    30    12    18 ar  
    31    13    14 ar  
    32    14    15 ar  
    33    14    38 1   
    34    15    16 ar  
    35    16    17 1   
    36    16    18 ar  
    37    17    39 1   
    38    17    40 1   
    39    18    19 1   
    40    19    20 2   
    41    20    41 1   
    42    21    22 1   
    43    21    23 1   
    44    21    42 1   
    45    22    43 1   
    46    23    24 1   
    47    23    44 1   
    48    24    45 1   
@<TRIPOS>SUBSTRUCTURE
     1 MAO         1 TEMP              0 ****  ****    0 ROOT
