@<TRIPOS>MOLECULE
MAQ
   22    23     1     0     0
SMALL
bcc


@<TRIPOS>ATOM
      1 C1         -0.0190    0.0320   -0.0130 ca        1 MAQ     -0.074000
      2 C2          1.3750    0.0510   -0.0370 ca        1 MAQ     -0.136300
      3 C9          2.0980    0.0980   -1.3280 c3        1 MAQ     -0.053800
      4 C3          2.0790    0.0250    1.1970 ca        1 MAQ      0.179600
      5 N3          3.4750    0.0800    1.2350 na        1 MAQ     -0.731600
      6 C8          4.1330   -0.0550    2.4840 cc        1 MAQ      0.835100
      7 N2          5.5450   -0.2060    2.4340 nh        1 MAQ     -0.888800
      8 N1          3.5080   -0.0760    3.6600 nd        1 MAQ     -0.737100
      9 C7          2.0990   -0.0700    3.7000 c         1 MAQ      0.717100
     10 O1          1.5080   -0.0950    4.7930 o         1 MAQ     -0.544100
     11 C4          1.3550   -0.0280    2.4140 ca        1 MAQ     -0.211600
     12 C5         -0.0430   -0.0450    2.3970 ca        1 MAQ     -0.042000
     13 C6         -0.7270   -0.0140    1.1890 ca        1 MAQ     -0.168000
     14 H1         -0.5710    0.0530   -0.9660 ha        1 MAQ      0.136000
     15 H91         2.7360    1.0150   -1.3930 hc        1 MAQ      0.044700
     16 H92         1.3820    0.1170   -2.1870 hc        1 MAQ      0.044700
     17 H93         2.7550   -0.8010   -1.4480 hc        1 MAQ      0.044700
     18 H3          3.9740   -0.0610    0.3860 hn        1 MAQ      0.450800
     19 H21         5.9730   -0.2300    3.3380 hn        1 MAQ      0.414300
     20 H22         6.0040    0.4110    1.8000 hn        1 MAQ      0.414300
     21 H5         -0.5810   -0.0840    3.3600 ha        1 MAQ      0.164000
     22 H6         -1.8270   -0.0270    1.1760 ha        1 MAQ      0.141000
@<TRIPOS>BOND
     1    1    2 ar
     2    1   13 ar
     3    1   14 1
     4    2    3 1
     5    2    4 ar
     6    3   15 1
     7    3   16 1
     8    3   17 1
     9    4    5 1
    10    4   11 ar
    11    5    6 1
    12    5   18 1
    13    6    7 1
    14    6    8 2
    15    7   19 1
    16    7   20 1
    17    8    9 1
    18    9   10 2
    19    9   11 1
    20   11   12 ar
    21   12   13 ar
    22   12   21 1
    23   13   22 1
@<TRIPOS>SUBSTRUCTURE
     1 MAQ         1 TEMP              0 ****  ****    0 ROOT
