@<TRIPOS>MOLECULE
MAS
   13    12     1     0     0
SMALL
bcc


@<TRIPOS>ATOM
      1 S            0.0000     0.0000     0.0000 s6         1 MAS       1.123700
      2 O1           1.4210     0.0000     0.0000 o          1 MAS      -0.661867
      3 O2          -0.7780     0.0000     1.1890 o          1 MAS      -0.661867
      4 N           -0.4680     1.3310    -0.8660 n3         1 MAS      -0.586500
      5 C1          -1.7910     1.9200    -0.6450 c3         1 MAS       0.297100
      6 C2           0.4410     1.9200    -1.8520 c3         1 MAS       0.297100
      7 H11         -2.5190     1.1310    -0.5010 h1         1 MAS      -0.024300
      8 H12         -2.0700     2.5160    -1.5050 h1         1 MAS      -0.024300
      9 H13         -1.7630     2.5500     0.2360 h1         1 MAS      -0.024300
     10 H21          1.1630     2.5500    -1.3460 h1         1 MAS      -0.024300
     11 H22         -0.1260     2.5160    -2.5570 h1         1 MAS      -0.024300
     12 H23          0.9600     1.1310    -2.3820 h1         1 MAS      -0.024300
     13 O3          -0.4290    -1.2270    -0.7930 o          1 MAS      -0.661867
@<TRIPOS>BOND
     1     1     2 1   
     2     1     3 1   
     3     1     4 1   
     4     1    13 1   
     5     4     5 1   
     6     4     6 1   
     7     5     7 1   
     8     5     8 1   
     9     5     9 1   
    10     6    10 1   
    11     6    11 1   
    12     6    12 1   
@<TRIPOS>SUBSTRUCTURE
     1 MAS         1 TEMP              0 ****  ****    0 ROOT
