@<TRIPOS>MOLECULE
molecule
   48    50     1     0     0
SMALL
bcc


@<TRIPOS>ATOM
      1 C1           0.0000     0.0000     0.0000 ca         1 MAX      -0.208000
      2 C2           1.3850     0.0000     0.0000 ca         1 MAX       0.108100
      3 C3           2.0780     0.0000     1.2070 ca         1 MAX       0.082100
      4 C4           1.3790     0.0100     2.4040 ca         1 MAX      -0.130000
      5 C5          -0.0030     0.0100     2.3970 ca         1 MAX      -0.150000
      6 C6          -0.6910     0.0050     1.1980 ca         1 MAX      -0.066300
      7 C7          -2.1980     0.0040     1.1950 c3         1 MAX      -0.027100
      8 C8          -2.7070    -1.4390     1.2020 c3         1 MAX      -0.106700
      9 C9          -2.3980    -2.1220     2.5510 c3         1 MAX       0.140400
     10 O10         -3.6190    -2.8410     2.9010 os         1 MAX      -0.414900
     11 C11         -4.6710    -2.1470     2.4300 c          1 MAX       0.733600
     12 C12         -4.2500    -1.4740     1.1340 c3         1 MAX      -0.184700
     13 O13         -5.7610    -2.0730     2.9460 o          1 MAX      -0.544500
     14 C14         -4.7210    -2.2930    -0.0690 c3         1 MAX      -0.014100
     15 C15         -6.2260    -2.2750    -0.1310 ca         1 MAX      -0.069300
     16 C16         -6.8760    -1.2850    -0.8430 ca         1 MAX      -0.144000
     17 C17         -8.2580    -1.2640    -0.9030 ca         1 MAX      -0.134000
     18 C18         -8.9940    -2.2390    -0.2480 ca         1 MAX       0.084100
     19 C19         -8.3390    -3.2370     0.4680 ca         1 MAX       0.113100
     20 C20         -6.9540    -3.2540     0.5200 ca         1 MAX      -0.190000
     21 O21         -9.0570    -4.1960     1.1130 os         1 MAX      -0.280900
     22 C22         -8.1140    -5.0610     1.7470 c3         1 MAX       0.098700
     23 O23        -10.3520    -2.2210    -0.3060 oh         1 MAX      -0.502100
     24 O24          3.4380     0.0000     1.2120 oh         1 MAX      -0.502100
     25 O25          2.0670    -0.0040    -1.1770 os         1 MAX      -0.278900
     26 C26          1.0900    -0.0090    -2.2200 c3         1 MAX       0.101700
     27 H1          -0.5420    -0.0020    -0.9380 ha         1 MAX       0.147000
     28 H4           1.9160     0.0120     3.3450 ha         1 MAX       0.145000
     29 H5          -0.5480     0.0160     3.3330 ha         1 MAX       0.134000
     30 H7C1        -2.5610     0.5190     2.0770 hc         1 MAX       0.058200
     31 H7C2        -2.5590     0.5100     0.3080 hc         1 MAX       0.058200
     32 H8          -2.2790    -2.0050     0.3830 hc         1 MAX       0.074700
     33 H9C1        -2.1720    -1.3770     3.3050 h1         1 MAX       0.068700
     34 H9C2        -1.5730    -2.8150     2.4390 h1         1 MAX       0.068700
     35 H12         -4.6460    -0.4670     1.0900 hc         1 MAX       0.092700
     36 H141        -4.3170    -1.8630    -0.9780 hc         1 MAX       0.056200
     37 H142        -4.3750    -3.3140     0.0320 hc         1 MAX       0.056200
     38 H16         -6.3020    -0.5220    -1.3560 ha         1 MAX       0.129000
     39 H17         -8.7640    -0.4870    -1.4610 ha         1 MAX       0.141000
     40 H20         -6.4420    -4.0300     1.0760 ha         1 MAX       0.150000
     41 H221        -7.4380    -5.4650     1.0030 h1         1 MAX       0.046367
     42 H222        -8.6400    -5.8730     2.2350 h1         1 MAX       0.046367
     43 H223        -7.5490    -4.5030     2.4830 h1         1 MAX       0.046367
     44 H23        -10.6330    -2.4650    -1.1720 ho         1 MAX       0.414000
     45 H24          3.7520    -0.8410     1.5000 ho         1 MAX       0.417000
     46 H261         1.5880     0.0050    -3.1810 h1         1 MAX       0.044367
     47 H262         0.4820    -0.9020    -2.1410 h1         1 MAX       0.044367
     48 H263         0.4590     0.8670    -2.1280 h1         1 MAX       0.044367
@<TRIPOS>BOND
     1     1     2 ar
     2     1     6 ar
     3     1    27 1
     4     2     3 ar
     5     2    25 1
     6     3     4 ar
     7     3    24 1
     8     4     5 ar
     9     4    28 1
    10     5     6 ar
    11     5    29 1
    12     6     7 1
    13     7     8 1
    14     7    30 1
    15     7    31 1
    16     8     9 1
    17     8    12 1
    18     8    32 1
    19     9    10 1
    20     9    33 1
    21     9    34 1
    22    10    11 1
    23    11    12 1
    24    11    13 2
    25    12    14 1
    26    12    35 1
    27    14    15 1
    28    14    36 1
    29    14    37 1
    30    15    16 ar
    31    15    20 ar
    32    16    17 ar
    33    16    38 1
    34    17    18 ar
    35    17    39 1
    36    18    19 ar
    37    18    23 1
    38    19    20 ar
    39    19    21 1
    40    20    40 1
    41    21    22 1
    42    22    41 1
    43    22    42 1
    44    22    43 1
    45    23    44 1
    46    24    45 1
    47    25    26 1
    48    26    46 1
    49    26    47 1
    50    26    48 1
@<TRIPOS>SUBSTRUCTURE
     1 MAX         1 TEMP              0 ****  ****    0 ROOT
