@<TRIPOS>MOLECULE
MAX
   48    50     1     0     0
SMALL
bcc


@<TRIPOS>ATOM
      1 C1         -0.3100   -0.0560    0.0720 ca        1 MAX     -0.174000
      2 C2          1.0210    0.3230   -0.0970 ca        1 MAX      0.106100
      3 C3          1.8000    0.6760    1.0360 ca        1 MAX      0.106100
      4 C4          1.2270    0.6410    2.3090 ca        1 MAX     -0.186000
      5 C5         -0.1070    0.2600    2.4630 ca        1 MAX     -0.120000
      6 C6         -0.8770   -0.0890    1.3540 ca        1 MAX     -0.090300
      7 C7         -2.3050   -0.4800    1.5180 c3        1 MAX     -0.028100
      8 C8         -2.5130   -1.9770    1.3610 c3        1 MAX     -0.093700
      9 C9         -1.8670   -2.7810    2.5000 c3        1 MAX      0.122400
     10 O10        -2.8660   -3.6530    3.0600 os        1 MAX     -0.409900
     11 C11        -4.0820   -3.4380    2.4480 c         1 MAX      0.718600
     12 C12        -4.0070   -2.3450    1.4040 c3        1 MAX     -0.150700
     13 O13        -5.0070   -4.1380    2.8460 o         1 MAX     -0.580500
     14 C14        -4.5490   -2.7910    0.0530 c3        1 MAX     -0.014100
     15 C15        -5.9760   -2.4120   -0.1450 ca        1 MAX     -0.104300
     16 C16        -6.3240   -1.4470   -1.0930 ca        1 MAX     -0.122000
     17 C17        -7.6570   -1.0990   -1.3040 ca        1 MAX     -0.141000
     18 C18        -8.6610   -1.7240   -0.5550 ca        1 MAX      0.114100
     19 C19        -8.3110   -2.7030    0.4060 ca        1 MAX      0.047100
     20 C20        -6.9760   -3.0450    0.6060 ca        1 MAX     -0.155000
     21 O21        -9.3830   -3.2550    1.0880 os        1 MAX     -0.351900
     22 C22        -9.0570   -4.2300    2.0740 c3        1 MAX      0.119700
     23 O23        -9.9590   -1.3460   -0.7990 oh        1 MAX     -0.496100
     24 O24         3.1050    1.0400    0.8060 oh        1 MAX     -0.473100
     25 O25         1.6790    0.3860   -1.3080 os        1 MAX     -0.301900
     26 C26         0.8960    0.0900   -2.4590 c3        1 MAX      0.109700
     27 H1         -0.9280   -0.3280   -0.7960 ha        1 MAX      0.139000
     28 H4          1.8270    0.9160    3.1880 ha        1 MAX      0.139000
     29 H5         -0.5490    0.2390    3.4710 ha        1 MAX      0.136000
     30 H7C1       -2.6790   -0.1530    2.5250 hc        1 MAX      0.057200
     31 H7C2       -2.9240    0.0500    0.7440 hc        1 MAX      0.057200
     32 H8         -2.0620   -2.3030    0.3850 hc        1 MAX      0.072700
     33 H9C1       -1.5040   -2.1250    3.3320 h1        1 MAX      0.068200
     34 H9C2       -1.0390   -3.4410    2.1380 h1        1 MAX      0.068200
     35 H12        -4.6120   -1.4740    1.7810 hc        1 MAX      0.101700
     36 H141       -4.4450   -3.9050   -0.0450 hc        1 MAX      0.058700
     37 H142       -3.9270   -2.3260   -0.7590 hc        1 MAX      0.058700
     38 H16        -5.5420   -0.9510   -1.6880 ha        1 MAX      0.131000
     39 H17        -7.9360   -0.3410   -2.0490 ha        1 MAX      0.152000
     40 H20        -6.6900   -3.8020    1.3560 ha        1 MAX      0.168000
     41 H221      -10.0550   -4.5110    2.4980 h1        1 MAX      0.049700
     42 H222       -8.5640   -5.1140    1.6020 h1        1 MAX      0.049700
     43 H223       -8.4000   -3.7890    2.8620 h1        1 MAX      0.049700
     44 H23       -10.5370   -1.8600   -0.2150 ho        1 MAX      0.438000
     45 H24         3.5040    1.2540    1.6630 ho        1 MAX      0.416000
     46 H261        0.0390    0.8010   -2.5510 h1        1 MAX      0.044700
     47 H262        0.5280   -0.9650   -2.4260 h1        1 MAX      0.044700
     48 H263        1.6180    0.2300   -3.3040 h1        1 MAX      0.044700
@<TRIPOS>BOND
     1    1    2 ar  
     2    1    6 ar  
     3    1   27 1   
     4    2    3 ar  
     5    2   25 1   
     6    3    4 ar  
     7    3   24 1   
     8    4    5 ar  
     9    4   28 1   
    10    5    6 ar  
    11    5   29 1   
    12    6    7 1   
    13    7    8 1   
    14    7   30 1   
    15    7   31 1   
    16    8    9 1   
    17    8   12 1   
    18    8   32 1   
    19    9   10 1   
    20    9   33 1   
    21    9   34 1   
    22   10   11 1   
    23   11   12 1   
    24   11   13 2   
    25   12   14 1   
    26   12   35 1   
    27   14   15 1   
    28   14   36 1   
    29   14   37 1   
    30   15   16 ar  
    31   15   20 ar  
    32   16   17 ar  
    33   16   38 1   
    34   17   18 ar  
    35   17   39 1   
    36   18   19 ar  
    37   18   23 1   
    38   19   20 ar  
    39   19   21 1   
    40   20   40 1   
    41   21   22 1   
    42   22   41 1   
    43   22   42 1   
    44   22   43 1   
    45   23   44 1   
    46   24   45 1   
    47   25   26 1   
    48   26   46 1   
    49   26   47 1   
    50   26   48 1   
@<TRIPOS>SUBSTRUCTURE
     1 MAX         1 TEMP              0 ****  ****    0 ROOT
