@<TRIPOS>MOLECULE
MAY
   61    60     1     0     0
SMALL
bcc


@<TRIPOS>ATOM
      1 F           2.2190   -6.7610   -1.0280 f         1 MAY     -0.338400
      2 C1          1.6690   -4.3000   -1.4790 c3        1 MAY     -0.420600
      3 O1         -0.1400   -6.0990   -0.6900 o         1 MAY     -0.841300
      4 P1          1.2450   -5.6450   -0.6420 p5        1 MAY      1.601300
      5 C2          1.0920   -4.4280   -2.8680 c3        1 MAY     -0.077400
      6 O2          1.7470   -5.3520    0.8620 os        1 MAY     -0.613200
      7 C3          1.3670   -3.2150   -3.7240 c3        1 MAY     -0.067400
      8 C4          0.7560   -3.3750   -5.1020 c3        1 MAY     -0.049200
      9 C5          1.0100   -2.1980   -5.9660 c2        1 MAY     -0.180200
     10 C6          0.4290   -2.0120   -7.1570 c2        1 MAY     -0.162200
     11 C7         -0.5520   -2.9550   -7.7450 c3        1 MAY     -0.021000
     12 C8         -0.9140   -2.6410   -9.1480 c2        1 MAY     -0.173200
     13 C9         -1.8930   -3.2640   -9.8150 c2        1 MAY     -0.167200
     14 CM          0.9610   -5.7920    1.9420 c3        1 MAY      0.155700
     15 C10        -2.7370   -4.3290   -9.2230 c3        1 MAY     -0.020000
     16 C11        -3.6620   -4.9670  -10.1900 c2        1 MAY     -0.173200
     17 C12        -4.4150   -6.0330   -9.8980 c2        1 MAY     -0.167200
     18 C13        -4.4010   -6.7100   -8.5790 c3        1 MAY     -0.020000
     19 C14        -5.4550   -7.7410   -8.4260 c2        1 MAY     -0.173200
     20 C15        -5.5200   -8.5800   -7.3860 c2        1 MAY     -0.171200
     21 C16        -4.5430   -8.5900   -6.2720 c3        1 MAY     -0.050200
     22 C17        -4.9570   -9.5220   -5.1520 c3        1 MAY     -0.077400
     23 C18        -3.9370   -9.5160   -4.0330 c3        1 MAY     -0.080400
     24 C19        -4.3520  -10.4350   -2.9040 c3        1 MAY     -0.078400
     25 C20        -3.3340  -10.4380   -1.7930 c3        1 MAY     -0.095100
     26 H1          1.2780   -3.3630   -1.0020 hc        1 MAY      0.118200
     27 H1A         2.7770   -4.1390   -1.5460 hc        1 MAY      0.118200
     28 H2          1.5300   -5.3440   -3.3500 hc        1 MAY      0.061200
     29 H2A        -0.0170   -4.5960   -2.7780 hc        1 MAY      0.061200
     30 H3          2.4740   -3.0610   -3.8160 hc        1 MAY      0.045700
     31 H3A         0.9440   -2.3020   -3.2290 hc        1 MAY      0.045700
     32 H4          1.1770   -4.2940   -5.5960 hc        1 MAY      0.050200
     33 H4A        -0.3530   -3.5400   -5.0040 hc        1 MAY      0.050200
     34 H5          1.7280   -1.4580   -5.5760 ha        1 MAY      0.123000
     35 H6          0.6640   -1.1170   -7.7550 ha        1 MAY      0.125000
     36 H7         -1.4850   -2.9570   -7.1090 hc        1 MAY      0.057200
     37 H7A        -0.1400   -4.0040   -7.6980 hc        1 MAY      0.057200
     38 H8         -0.3210   -1.8540   -9.6410 ha        1 MAY      0.124000
     39 H9         -2.1110   -2.9910  -10.8600 ha        1 MAY      0.125000
     40 HM          0.0090   -6.2550    1.5720 h1        1 MAY      0.047700
     41 HMA         1.5610   -6.5330    2.5340 h1        1 MAY      0.047700
     42 HMB         0.7400   -4.9050    2.5910 h1        1 MAY      0.047700
     43 H10        -2.0740   -5.1180   -8.7630 hc        1 MAY      0.055700
     44 H10A       -3.3380   -3.8920   -8.3730 hc        1 MAY      0.055700
     45 H11        -3.7110   -4.5110  -11.1930 ha        1 MAY      0.124000
     46 H12        -5.0870   -6.4620  -10.6590 ha        1 MAY      0.124000
     47 H13        -3.3880   -7.1810   -8.4190 hc        1 MAY      0.055700
     48 H13A       -4.5200   -5.9410   -7.7620 hc        1 MAY      0.055700
     49 H14        -6.2120   -7.7870   -9.2250 ha        1 MAY      0.123000
     50 H15        -6.3330   -9.3220   -7.3220 ha        1 MAY      0.123000
     51 H16        -3.5360   -8.9010   -6.6660 hc        1 MAY      0.047200
     52 H16A       -4.4220   -7.5470   -5.8670 hc        1 MAY      0.047200
     53 H17        -5.9570   -9.2080   -4.7520 hc        1 MAY      0.040700
     54 H17A       -5.0710  -10.5640   -5.5510 hc        1 MAY      0.040700
     55 H18        -2.9390   -9.8380   -4.4310 hc        1 MAY      0.041700
     56 H18A       -3.8140   -8.4720   -3.6390 hc        1 MAY      0.041700
     57 H19        -5.3470  -10.1080   -2.5030 hc        1 MAY      0.036200
     58 H19A       -4.4820  -11.4770   -3.3000 hc        1 MAY      0.036200
     59 H20        -3.6640  -11.1120   -0.9660 hc        1 MAY      0.034700
     60 H20A       -3.1980   -9.4100   -1.3790 hc        1 MAY      0.034700
     61 H20B       -2.3440  -10.7960   -2.1660 hc        1 MAY      0.034700
@<TRIPOS>BOND
     1    1    4 1   
     2    2    4 1   
     3    2    5 1   
     4    2   26 1   
     5    2   27 1   
     6    3    4 2   
     7    4    6 1   
     8    5    7 1   
     9    5   28 1   
    10    5   29 1   
    11    6   14 1   
    12    7    8 1   
    13    7   30 1   
    14    7   31 1   
    15    8    9 1   
    16    8   32 1   
    17    8   33 1   
    18    9   10 2   
    19    9   34 1   
    20   10   11 1   
    21   10   35 1   
    22   11   12 1   
    23   11   36 1   
    24   11   37 1   
    25   12   13 2   
    26   12   38 1   
    27   13   15 1   
    28   13   39 1   
    29   14   40 1   
    30   14   41 1   
    31   14   42 1   
    32   15   16 1   
    33   15   43 1   
    34   15   44 1   
    35   16   17 2   
    36   16   45 1   
    37   17   18 1   
    38   17   46 1   
    39   18   19 1   
    40   18   47 1   
    41   18   48 1   
    42   19   20 2   
    43   19   49 1   
    44   20   21 1   
    45   20   50 1   
    46   21   22 1   
    47   21   51 1   
    48   21   52 1   
    49   22   23 1   
    50   22   53 1   
    51   22   54 1   
    52   23   24 1   
    53   23   55 1   
    54   23   56 1   
    55   24   25 1   
    56   24   57 1   
    57   24   58 1   
    58   25   59 1   
    59   25   60 1   
    60   25   61 1   
@<TRIPOS>SUBSTRUCTURE
     1 MAY         1 TEMP              0 ****  ****    0 ROOT
