@<TRIPOS>MOLECULE
molecule
   61    60     1     0     0
SMALL
bcc


@<TRIPOS>ATOM
      1 F            0.0000     0.0000     0.0000 f          1 MAY      -0.334400
      2 C1           2.2780    -1.4890    -0.8580 c3         1 MAY      -0.253600
      3 O1           2.1630     1.2080    -0.6980 o          1 MAY      -0.769300
      4 P1           1.6700     0.0000     0.0000 p5         1 MAY       1.375300
      5 C2           1.7680    -1.4900    -2.3010 c3         1 MAY      -0.072400
      6 O2           2.2070     0.0000     1.5190 os         1 MAY      -0.583200
      7 C3           2.2770    -2.7390    -3.0220 c3         1 MAY      -0.084400
      8 C4           1.7670    -2.7400    -4.4640 c3         1 MAY       0.017800
      9 C5           2.2680    -3.9710    -5.1740 c2         1 MAY      -0.224200
     10 C6           1.4270    -4.7550    -5.8000 c2         1 MAY      -0.204200
     11 C7          -0.0150    -4.3450    -5.9520 c3         1 MAY       0.173000
     12 C8          -0.4040    -4.4040    -7.4070 c2         1 MAY      -0.113200
     13 C9          -1.4670    -5.0770    -7.7730 c2         1 MAY      -0.253200
     14 CM           1.9010     1.0390     2.4510 c3         1 MAY       0.193700
     15 C10         -2.3920    -5.6500    -6.7310 c3         1 MAY       0.145000
     16 C11         -3.8010    -5.1870    -7.0000 c2         1 MAY      -0.215200
     17 C12         -4.7700    -6.0620    -7.1000 c2         1 MAY      -0.203200
     18 C13         -4.5140    -7.5110    -6.7750 c3         1 MAY       0.075000
     19 C14         -5.5260    -7.9860    -5.7640 c2         1 MAY      -0.266200
     20 C15         -6.2430    -9.0550    -6.0070 c2         1 MAY      -0.168200
     21 C16         -5.9460    -9.9020    -7.2170 c3         1 MAY      -0.075200
     22 C17         -5.7770   -11.3610    -6.7880 c3         1 MAY      -0.077400
     23 C18         -5.4750   -12.2220    -8.0170 c3         1 MAY      -0.091400
     24 C19         -5.3060   -13.6810    -7.5880 c3         1 MAY      -0.082400
     25 C20         -5.0040   -14.5420    -8.8160 c3         1 MAY      -0.092100
     26 H1           1.9170    -2.3730    -0.3470 hc         1 MAY       0.088200
     27 H1A          3.3610    -1.4880    -0.8590 hc         1 MAY       0.088200
     28 H2           2.1290    -0.6060    -2.8120 hc         1 MAY       0.054200
     29 H2A          0.6840    -1.4890    -2.3000 hc         1 MAY       0.054200
     30 H3           3.3600    -2.7400    -3.0220 hc         1 MAY       0.057200
     31 H3A          1.9150    -3.6240    -2.5110 hc         1 MAY       0.057200
     32 H4           0.6840    -2.7390    -4.4630 hc         1 MAY       0.045200
     33 H4A          2.1290    -1.8550    -4.9750 hc         1 MAY       0.045200
     34 H5           2.1030    -3.0440    -5.7100 ha         1 MAY       0.114000
     35 H6           0.7080    -4.9350    -5.0100 ha         1 MAY      -0.002000
     36 H7          -0.1440    -3.3340    -5.5850 hc         1 MAY       0.043700
     37 H7A         -0.6440    -5.0190    -5.3820 hc         1 MAY       0.043700
     38 H8          -0.8520    -3.6800    -6.7380 ha         1 MAY       0.050000
     39 H9          -2.1170    -4.5400    -7.0920 ha         1 MAY       0.127000
     40 HM           2.0830     0.6840     3.4590 h1         1 MAY       0.044033
     41 HMA          2.5290     1.8990     2.2520 h1         1 MAY       0.044033
     42 HMB          0.8600     1.3200     2.3500 h1         1 MAY       0.044033
     43 H10         -2.0830    -5.3130    -5.7490 hc         1 MAY       0.068200
     44 H10A        -2.3540    -6.7320    -6.7700 hc         1 MAY       0.068200
     45 H11         -3.4630    -5.3820    -5.9890 ha         1 MAY       0.046000
     46 H12         -4.3510    -6.7320    -7.8410 ha         1 MAY       0.061000
     47 H13         -3.5170    -7.6190    -6.3660 hc         1 MAY       0.075700
     48 H13A        -4.6000    -8.1040    -7.6780 hc         1 MAY       0.075700
     49 H14         -5.7130    -7.5590    -6.7420 ha         1 MAY       0.171000
     50 H15         -6.6450    -8.8000    -6.9810 ha         1 MAY       0.147000
     51 H16         -5.0330    -9.5550    -7.6860 hc         1 MAY       0.047200
     52 H16A        -6.7660    -9.8260    -7.9220 hc         1 MAY       0.047200
     53 H17         -4.9580   -11.4370    -6.0830 hc         1 MAY       0.055200
     54 H17A        -6.6900   -11.7080    -6.3190 hc         1 MAY       0.055200
     55 H18         -6.2940   -12.1460    -8.7210 hc         1 MAY       0.039700
     56 H18A        -4.5620   -11.8750    -8.4850 hc         1 MAY       0.039700
     57 H19         -6.2190   -14.0280    -7.1190 hc         1 MAY       0.042200
     58 H19A        -4.4860   -13.7570    -6.8830 hc         1 MAY       0.042200
     59 H20         -4.9680   -15.5850    -8.5260 hc         1 MAY       0.033700
     60 H20A        -4.0480   -14.2510    -9.2360 hc         1 MAY       0.033700
     61 H20B        -5.7810   -14.4000    -9.5570 hc         1 MAY       0.033700
@<TRIPOS>BOND
     1     4     1 1
     2     2     4 1
     3     2     5 1
     4     2    26 1
     5     2    27 1
     6     3     4 2
     7     4     6 1
     8     5     7 1
     9     5    28 1
    10     5    29 1
    11     6    14 1
    12     8     7 1
    13     7    30 1
    14     7    31 1
    15     8     9 1
    16     8    32 1
    17     8    33 1
    18     9    10 2
    19     9    34 1
    20    11    10 1
    21    10    35 1
    22    11    12 1
    23    11    36 1
    24    11    37 1
    25    13    12 2
    26    12    38 1
    27    15    13 1
    28    13    39 1
    29    14    40 1
    30    14    41 1
    31    14    42 1
    32    16    15 1
    33    15    43 1
    34    15    44 1
    35    17    16 2
    36    16    45 1
    37    18    17 1
    38    17    46 1
    39    19    18 1
    40    18    47 1
    41    18    48 1
    42    20    19 2
    43    19    49 1
    44    21    20 1
    45    20    50 1
    46    22    21 1
    47    21    51 1
    48    21    52 1
    49    22    23 1
    50    22    53 1
    51    22    54 1
    52    24    23 1
    53    23    55 1
    54    23    56 1
    55    24    25 1
    56    24    57 1
    57    24    58 1
    58    25    59 1
    59    25    60 1
    60    25    61 1
@<TRIPOS>SUBSTRUCTURE
     1 MAY         1 TEMP              0 ****  ****    0 ROOT
