@<TRIPOS>MOLECULE
MAZ
   20    20     1     0     0
SMALL
bcc


@<TRIPOS>ATOM
      1 C1           0.0000     0.0000     0.0000 ca         1 MAZ      -0.100000
      2 C2           1.3830     0.0000     0.0000 ca         1 MAZ      -0.076000
      3 C3           2.0770     0.0000     1.1950 ca         1 MAZ      -0.116300
      4 C4           1.3910     0.0060     2.3940 ca         1 MAZ      -0.085000
      5 C6          -0.6920    -0.0000     1.1950 ca         1 MAZ      -0.099000
      6 C12          3.5830    -0.0010     1.1910 c3         1 MAZ       0.291700
      7 O13          4.0680     1.3670     1.1880 os         1 MAZ      -0.424900
      8 C16          5.3870     1.6130     1.1840 c          1 MAZ       0.745900
      9 O18          5.7900     2.7510     1.1830 o          1 MAZ      -0.537000
     10 C5           0.0020    -0.0000     2.3970 ca         1 MAZ       0.027600
     11 HC1         -0.5410     0.0000    -0.9390 ha         1 MAZ       0.104000
     12 HC2          1.9240    -0.0020    -0.9390 ha         1 MAZ       0.105000
     13 HC4          1.9350     0.0060     3.3300 ha         1 MAZ       0.111000
     14 HC6         -1.7760    -0.0030     1.1940 ha         1 MAZ       0.108000
     15 H121         3.9470    -0.5110     2.0750 h1         1 MAZ      -0.001800
     16 H122         3.9420    -0.5120     0.3060 h1         1 MAZ      -0.001800
     17 H16          6.0910     0.7890     1.1820 h5         1 MAZ      -0.040800
     18 H111        -0.9390    -0.8670     4.0450 hn         1 MAZ       0.274300
     19 H112        -0.9420     0.8670     4.0430 hn         1 MAZ       0.274300
     20 N11         -0.6950     0.0000     3.6080 nv         1 MAZ      -0.561200
@<TRIPOS>BOND
     1     1     2 ar  
     2     1     5 ar  
     3     1    11 1   
     4     2     3 ar  
     5     2    12 1   
     6     3     4 ar  
     7     3     6 1   
     8     4    10 ar  
     9     4    13 1   
    10     5    10 ar  
    11     5    14 1   
    12     6     7 1   
    13     6    15 1   
    14     6    16 1   
    15     7     8 1   
    16     8     9 2   
    17     8    17 1   
    18    10    20 1   
    19    18    20 1   
    20    19    20 1   
@<TRIPOS>SUBSTRUCTURE
     1 MAZ         1 TEMP              0 ****  ****    0 ROOT
