@<TRIPOS>MOLECULE
MB0
   43    46     1     0     0
SMALL
bcc


@<TRIPOS>ATOM
      1 C1L         0.1010   -0.0280   -0.0300 c3        1 MB0     -0.094900
      2 C1J         1.6200    0.0590    0.0620 c3        1 MB0      0.167300
      3 N1W         2.1110   -0.0090    1.4310 n3        1 MB0     -0.737600
      4 C1A         3.5500    0.1070    1.5090 c3        1 MB0      0.158100
      5 C1K         1.6070   -1.1610    2.1630 c3        1 MB0      0.167300
      6 C1M         0.0900   -1.3130    2.0970 c3        1 MB0     -0.094900
      7 C1Y        -0.4420   -1.3110    0.6470 c3        1 MB0      0.130400
      8 N1N        -0.0310   -2.5180   -0.0550 n         1 MB0     -0.550900
      9 C1O        -0.6190   -2.9460   -1.2340 c         1 MB0      0.731700
     10 O1D        -0.0710   -3.8250   -1.9280 o         1 MB0     -0.638500
     11 C1R        -1.9300   -2.3340   -1.5440 cc        1 MB0     -0.100300
     12 N1X        -2.6890   -2.4720   -2.7090 na        1 MB0     -0.007400
     13 C1B        -2.3480   -3.2760   -3.8420 c3        1 MB0      0.002600
     14 C1U        -3.8530   -1.7090   -2.5430 ca        1 MB0     -0.027200
     15 C1Q        -4.9540   -1.4850   -3.3990 ca        1 MB0      0.008400
     16 CL1F       -5.0300   -2.2000   -4.9340 cl        1 MB0     -0.065400
     17 C1P        -5.9790   -0.6580   -2.9450 ca        1 MB0      0.038400
     18 CL1E       -7.3330   -0.3460   -3.9210 cl        1 MB0     -0.067400
     19 C1H        -5.9350   -0.0500   -1.6700 ca        1 MB0     -0.140000
     20 C1I        -4.8660   -0.2550   -0.8210 ca        1 MB0     -0.071000
     21 C1T        -3.8150   -1.0790   -1.2360 ca        1 MB0     -0.079800
     22 C1S        -2.5830   -1.4920   -0.6280 cd        1 MB0     -0.117400
     23 C1V        -2.0050   -1.1740    0.6950 c3        1 MB0      0.071600
     24 C1G        -2.5770   -2.0300    1.7240 c1        1 MB0      0.214700
     25 N1C        -3.0550   -2.7050    2.5410 n1        1 MB0     -0.359800
     26 H1L        -0.1990   -0.0020   -1.1090 hc        1 MB0      0.066200
     27 H1LA       -0.3550    0.8620    0.4770 hc        1 MB0      0.066200
     28 H1J         2.0770   -0.7460   -0.5870 h1        1 MB0      0.036450
     29 H1JA        1.9440    1.0530   -0.3610 h1        1 MB0      0.036450
     30 H1A         4.0930   -0.7450    1.0140 h1        1 MB0      0.035367
     31 H1AA        3.8620    1.0640    1.0140 h1        1 MB0      0.035367
     32 H1AB        3.8510    0.1440    2.5880 h1        1 MB0      0.035367
     33 H1K         1.8970   -1.0200    3.2440 h1        1 MB0      0.036450
     34 H1KA        2.0900   -2.1220    1.8140 h1        1 MB0      0.036450
     35 H1M        -0.1890   -2.2640    2.6200 hc        1 MB0      0.066200
     36 H1MA       -0.4000   -0.4620    2.6390 hc        1 MB0      0.066200
     37 HN1N        0.8780   -2.8660    0.1540 hn        1 MB0      0.327500
     38 H1B        -2.2670   -2.6280   -4.7560 h1        1 MB0      0.073700
     39 H1BA       -1.3650   -3.7920   -3.6630 h1        1 MB0      0.073700
     40 H1BB       -3.1440   -4.0520   -4.0100 h1        1 MB0      0.073700
     41 H1H        -6.7730    0.5940   -1.3580 ha        1 MB0      0.154000
     42 H1I        -4.8340    0.2170    0.1720 ha        1 MB0      0.145000
     43 H1V        -2.2480   -0.1040    0.9690 hc        1 MB0      0.095700
@<TRIPOS>BOND
     1    1    2 1   
     2    1    7 1   
     3    1   26 1   
     4    1   27 1   
     5    2    3 1   
     6    2   28 1   
     7    2   29 1   
     8    3    4 1   
     9    3    5 1   
    10    4   30 1   
    11    4   31 1   
    12    4   32 1   
    13    5    6 1   
    14    5   33 1   
    15    5   34 1   
    16    6    7 1   
    17    6   35 1   
    18    6   36 1   
    19    7    8 1   
    20    7   23 1   
    21    8    9 1   
    22    8   37 1   
    23    9   10 2   
    24    9   11 1   
    25   11   12 1   
    26   11   22 2   
    27   12   13 1   
    28   12   14 1   
    29   13   38 1   
    30   13   39 1   
    31   13   40 1   
    32   14   15 ar  
    33   14   21 ar  
    34   15   16 1   
    35   15   17 ar  
    36   17   18 1   
    37   17   19 ar  
    38   19   20 ar  
    39   19   41 1   
    40   20   21 ar  
    41   20   42 1   
    42   21   22 1   
    43   22   23 1   
    44   23   24 1   
    45   23   43 1   
    46   24   25 3   
@<TRIPOS>SUBSTRUCTURE
     1 MB0         1 TEMP              0 ****  ****    0 ROOT
