@<TRIPOS>MOLECULE
MB1
   20    20     1     0     0
SMALL
bcc


@<TRIPOS>ATOM
      1 S1           0.0000     0.0000     0.0000 sy         1 MB1       0.948200
      2 O1           1.4210     0.0000     0.0000 o          1 MB1      -0.482300
      3 O2          -0.7780     0.0000     1.1890 o          1 MB1      -0.482300
      4 N1          -0.4670     1.3330    -0.8640 nz         1 MB1      -0.143500
      5 C1          -1.2770    -3.6450    -2.3610 ca         1 MB1       0.095000
      6 C2           0.0650    -3.3880    -2.1590 ca         1 MB1      -0.452200
      7 C3           0.4560    -2.2750    -1.4370 ca         1 MB1       0.124000
      8 C4          -0.4970    -1.4190    -0.9200 ca         1 MB1      -0.245500
      9 C5          -1.8420    -1.6750    -1.1210 ca         1 MB1       0.053400
     10 C6          -2.2320    -2.7900    -1.8430 ca         1 MB1      -0.105000
     11 Cl          -3.0390    -0.6010    -0.4700 cl         1 MB1       0.051600
     12 O3           2.2700    -4.0790    -2.5350 o          1 MB1      -0.411500
     13 O4           0.7440    -5.2870    -3.3490 o          1 MB1      -0.411500
     14 HN11        -1.4520     1.4740    -0.7520 hn         1 MB1       0.318467
     15 HN12         0.0260     2.1370    -0.5290 hn         1 MB1       0.318467
     16 H1          -1.5810    -4.5170    -2.9280 ha         1 MB1       0.156000
     17 H3           1.5070    -2.0940    -1.2470 ha         1 MB1       0.167000
     18 H6          -3.2820    -2.9700    -2.0360 ha         1 MB1       0.151000
     19 H13         -0.2710     1.1870    -1.8340 hn         1 MB1       0.318467
     20 N2           1.0870    -4.3050    -2.7140 no         1 MB1       1.032200
@<TRIPOS>BOND
     1     1     2 2   
     2     1     3 2   
     3     1     4 1   
     4     1     8 1   
     5     4    14 1   
     6     4    15 1   
     7     4    19 1   
     8     5     6 ar  
     9     5    10 ar  
    10     5    16 1   
    11     6     7 ar  
    12     6    20 1   
    13     7     8 ar  
    14     7    17 1   
    15     8     9 ar  
    16     9    10 ar  
    17     9    11 1   
    18    10    18 1   
    19    12    20 1   
    20    13    20 1   
@<TRIPOS>SUBSTRUCTURE
     1 MB1         1 TEMP              0 ****  ****    0 ROOT
