@<TRIPOS>MOLECULE
molecule
   20    20     1     0     0
SMALL
bcc


@<TRIPOS>ATOM
      1 S1           0.0000     0.0000     0.0000 sy         1 MB1       1.249200
      2 O1           1.4210     0.0000     0.0000 o          1 MB1      -0.498800
      3 O2          -0.7780     0.0000     1.1890 o          1 MB1      -0.498800
      4 N1          -0.4670     1.3330    -0.8640 nz         1 MB1      -0.812500
      5 C1          -1.2770    -3.6450    -2.3610 ca         1 MB1       0.024000
      6 C2           0.0650    -3.3880    -2.1590 ca         1 MB1      -0.160200
      7 C3           0.4560    -2.2750    -1.4370 ca         1 MB1       0.047000
      8 C4          -0.4970    -1.4190    -0.9200 ca         1 MB1      -0.351500
      9 C5          -1.8420    -1.6750    -1.1210 ca         1 MB1       0.111400
     10 C6          -2.2320    -2.7900    -1.8430 ca         1 MB1      -0.115000
     11 Cl          -3.0390    -0.6010    -0.4700 cl         1 MB1      -0.053400
     12 O3           2.2700    -4.0790    -2.5350 o          1 MB1      -0.160000
     13 O4           0.7440    -5.2870    -3.3490 o          1 MB1      -0.160000
     14 HN11        -1.4520     1.4740    -0.7520 hn         1 MB1       0.497133
     15 HN12         0.0260     2.1370    -0.5290 hn         1 MB1       0.497133
     16 H1          -1.5810    -4.5170    -2.9280 ha         1 MB1       0.203000
     17 H3           1.5070    -2.0940    -1.2470 ha         1 MB1       0.206000
     18 H6          -3.2820    -2.9700    -2.0360 ha         1 MB1       0.192000
     19 H13         -0.2710     1.1870    -1.8340 hn         1 MB1       0.497133
     20 N2           1.0870    -4.3050    -2.7140 no         1 MB1       0.287200
@<TRIPOS>BOND
     1    12    20 1
     2    20    13 1
     3    20     6 1
     4     6     5 ar
     5     6     7 ar
     6     5    10 ar
     7     7     8 ar
     8    10     9 ar
     9     8     9 ar
    10     8     1 1
    11     9    11 1
    12     4     1 1
    13     2     1 2
    14     1     3 2
    15     4    14 1
    16     4    15 1
    17     5    16 1
    18     7    17 1
    19    10    18 1
    20    19     4 1
@<TRIPOS>SUBSTRUCTURE
     1 MB1         1 TEMP              0 ****  ****    0 ROOT
