@<TRIPOS>MOLECULE
MB2
   36    37     1     0     0
SMALL
bcc


@<TRIPOS>ATOM
      1 F20          0.0000     0.0000     0.0000 f          1 MB2      -0.116900
      2 C19          1.3500     0.0000     0.0000 ca         1 MB2       0.171900
      3 C18          2.0440     0.0000     1.1980 ca         1 MB2      -0.167500
      4 C17          3.4260    -0.0000     1.1970 ca         1 MB2       0.040500
      5 C21          2.0430    -0.0040    -1.1990 ca         1 MB2      -0.167500
      6 C22          3.4250    -0.0100    -1.1990 ca         1 MB2       0.040500
      7 C16          4.1160     0.0000    -0.0020 ca         1 MB2      -0.187500
      8 S13          5.8780    -0.0070    -0.0020 sy         1 MB2       1.053900
      9 O14          6.2780    -0.5390     1.2540 o          1 MB2      -0.550300
     10 O15          6.2770    -0.5660    -1.2460 o          1 MB2      -0.550300
     11 N12          6.3750     1.5730    -0.0190 ns         1 MB2      -0.304300
     12 C10          6.1060     2.3760     1.0300 c          1 MB2       0.637100
     13 O11          5.4990     1.9390     1.9890 o          1 MB2      -0.657100
     14 N9           6.5100     3.6610     1.0160 ns         1 MB2      -0.041100
     15 C8           6.1480     4.5200     2.0610 ca         1 MB2      -0.097700
     16 C7           6.0480     4.0430     3.3650 ca         1 MB2      -0.082000
     17 C6           5.6860     4.9320     4.3640 ca         1 MB2      -0.042300
     18 C23          5.8870     5.8610     1.8110 ca         1 MB2       0.368200
     19 N24          5.5470     6.6730     2.7930 nb         1 MB2      -0.545000
     20 C5           5.4370     6.2520     4.0370 ca         1 MB2       0.214200
     21 S1           4.9770     7.3880     5.3030 sy         1 MB2       0.878800
     22 O2           3.5580     7.4620     5.2770 o          1 MB2      -0.495800
     23 O3           5.7150     7.0220     6.4600 o          1 MB2      -0.495800
     24 N4           5.5310     8.8810     4.8460 nz         1 MB2      -0.113500
     25 H1           1.5030    -0.0000     2.1370 ha         1 MB2       0.130000
     26 H2           3.9680     0.0040     2.1340 ha         1 MB2       0.133000
     27 H3           1.5020    -0.0120    -2.1380 ha         1 MB2       0.130000
     28 H4           3.9670    -0.0110    -2.1370 ha         1 MB2       0.133000
     29 H5           6.8950     1.9260    -0.7980 hn         1 MB2       0.229500
     30 H6           7.0860     3.9970     0.2700 hn         1 MB2       0.182500
     31 H7           6.2480     3.0030     3.5920 ha         1 MB2       0.183000
     32 H8           5.5960     4.5960     5.3900 ha         1 MB2       0.141000
     33 H9           5.9670     6.2450     0.8010 h4         1 MB2       0.003100
     34 H10          5.3290     9.5460     5.5660 hn         1 MB2       0.314800
     35 H11          6.5200     8.8380     4.6990 hn         1 MB2       0.314800
     36 H43          5.0800     9.1590     3.9980 hn         1 MB2       0.314800
@<TRIPOS>BOND
     1     1     2 1   
     2     2     3 ar  
     3     2     5 ar  
     4     3     4 ar  
     5     3    25 1   
     6     4     7 ar  
     7     4    26 1   
     8     5     6 ar  
     9     5    27 1   
    10     6     7 ar  
    11     6    28 1   
    12     7     8 1   
    13     8     9 2   
    14     8    10 2   
    15     8    11 1   
    16    11    12 1   
    17    11    29 1   
    18    12    13 2   
    19    12    14 1   
    20    14    15 1   
    21    14    30 1   
    22    15    16 ar  
    23    15    18 ar  
    24    16    17 ar  
    25    16    31 1   
    26    17    20 ar  
    27    17    32 1   
    28    18    19 ar  
    29    18    33 1   
    30    19    20 ar  
    31    20    21 1   
    32    21    22 2   
    33    21    23 2   
    34    21    24 1   
    35    24    34 1   
    36    24    35 1   
    37    24    36 1   
@<TRIPOS>SUBSTRUCTURE
     1 MB2         1 TEMP              0 ****  ****    0 ROOT
