@<TRIPOS>MOLECULE
molecule
   36    37     1     0     0
SMALL
bcc


@<TRIPOS>ATOM
      1 F20          0.0000     0.0000     0.0000 f          1 MB2      -0.123900
      2 C19          1.3500     0.0000     0.0000 ca         1 MB2       0.201900
      3 C18          2.0440     0.0000     1.1980 ca         1 MB2      -0.194500
      4 C17          3.4260    -0.0000     1.1970 ca         1 MB2       0.007500
      5 C21          2.0430    -0.0040    -1.1990 ca         1 MB2      -0.194500
      6 C22          3.4250    -0.0100    -1.1990 ca         1 MB2       0.007500
      7 C16          4.1160     0.0000    -0.0020 ca         1 MB2      -0.342500
      8 S13          5.8780    -0.0070    -0.0020 sy         1 MB2       1.417900
      9 O14          6.2780    -0.5390     1.2540 o          1 MB2      -0.597300
     10 O15          6.2770    -0.5660    -1.2460 o          1 MB2      -0.597300
     11 N12          6.3750     1.5730    -0.0190 ns         1 MB2      -0.648300
     12 C10          6.1060     2.3760     1.0300 c          1 MB2       0.808100
     13 O11          5.4990     1.9390     1.9890 o          1 MB2      -0.609100
     14 N9           6.5100     3.6610     1.0160 ns         1 MB2      -0.481100
     15 C8           6.1480     4.5200     2.0610 ca         1 MB2       0.043300
     16 C7           6.0480     4.0430     3.3650 ca         1 MB2      -0.096000
     17 C6           5.6860     4.9320     4.3640 ca         1 MB2      -0.098300
     18 C23          5.8870     5.8610     1.8110 ca         1 MB2       0.391200
     19 N24          5.5470     6.6730     2.7930 nb         1 MB2      -0.656000
     20 C5           5.4370     6.2520     4.0370 ca         1 MB2       0.137200
     21 S1           4.9770     7.3880     5.3030 sy         1 MB2       1.188800
     22 O2           3.5580     7.4620     5.2770 o          1 MB2      -0.513300
     23 O3           5.7150     7.0220     6.4600 o          1 MB2      -0.513300
     24 N4           5.5310     8.8810     4.8460 nz         1 MB2      -0.801500
     25 H1           1.5030    -0.0000     2.1370 ha         1 MB2       0.158000
     26 H2           3.9680     0.0040     2.1340 ha         1 MB2       0.163500
     27 H3           1.5020    -0.0120    -2.1380 ha         1 MB2       0.158000
     28 H4           3.9670    -0.0110    -2.1370 ha         1 MB2       0.163500
     29 H5           6.8950     1.9260    -0.7980 hn         1 MB2       0.347500
     30 H6           7.0860     3.9970     0.2700 hn         1 MB2       0.344500
     31 H7           6.2480     3.0030     3.5920 ha         1 MB2       0.214000
     32 H8           5.5960     4.5960     5.3900 ha         1 MB2       0.176000
     33 H9           5.9670     6.2450     0.8010 h4         1 MB2       0.051100
     34 H10          5.3290     9.5460     5.5660 hn         1 MB2       0.496467
     35 H11          6.5200     8.8380     4.6990 hn         1 MB2       0.496467
     36 H43          5.0800     9.1590     3.9980 hn         1 MB2       0.496467
@<TRIPOS>BOND
     1    10     8 2
     2     9     8 2
     3     8     7 1
     4     8    11 1
     5     6     7 ar
     6     6     5 ar
     7     7     4 ar
     8    11    12 1
     9     5     2 ar
    10    13    12 2
    11    12    14 1
    12     4     3 ar
    13     2     3 ar
    14     2     1 1
    15    14    15 1
    16    15    16 ar
    17    15    18 ar
    18    16    17 ar
    19    18    19 ar
    20    17    20 ar
    21    19    20 ar
    22    20    21 1
    23    24    21 1
    24    23    21 2
    25    21    22 2
    26     3    25 1
    27     4    26 1
    28     5    27 1
    29     6    28 1
    30    11    29 1
    31    14    30 1
    32    16    31 1
    33    17    32 1
    34    18    33 1
    35    24    34 1
    36    24    35 1
    37    36    24 1
@<TRIPOS>SUBSTRUCTURE
     1 MB2         1 TEMP              0 ****  ****    0 ROOT
