@<TRIPOS>MOLECULE
molecule
   16    16     1     0     0
SMALL
bcc


@<TRIPOS>ATOM
      1 CAA          0.0000     0.0000     0.0000 c3         1 MB3       0.117300
      2 OAB          2.1990     0.5060    -1.7780 o          1 MB3      -0.629500
      3 CAC          3.4830     0.0000     1.5200 c3         1 MB3      -0.098400
      4 CAD          3.7630     0.0000     0.0000 c3         1 MB3      -0.169400
      5 CAE          2.0110    -0.4640     1.5710 c3         1 MB3       0.097000
      6 CAF          2.3980     0.1760    -0.6280 c          1 MB3       0.701500
      7 NAG          1.4360    -0.0850     0.2750 n          1 MB3      -0.503800
      8 HAA         -0.2430    -0.6310    -0.8470 h1         1 MB3       0.042033
      9 HAAA        -0.2650     1.0260    -0.2260 h1         1 MB3       0.042033
     10 HAAB        -0.5540    -0.3330     0.8690 h1         1 MB3       0.042033
     11 HAC          3.5870     0.9970     1.9310 hc         1 MB3       0.058200
     12 HACA         4.1270    -0.7060     2.0300 hc         1 MB3       0.058200
     13 HAD          4.2000    -0.9440    -0.3040 hc         1 MB3       0.076200
     14 HADA         4.4100     0.8280    -0.2650 hc         1 MB3       0.076200
     15 HAE          1.9620    -1.5390     1.7010 h1         1 MB3       0.045200
     16 HAEA         1.4880     0.0410     2.3740 h1         1 MB3       0.045200
@<TRIPOS>BOND
     1     1     7 1
     2     1     8 1
     3     1     9 1
     4     1    10 1
     5     6     2 2
     6     5     3 1
     7     3     4 1
     8     3    11 1
     9     3    12 1
    10     6     4 1
    11     4    13 1
    12     4    14 1
    13     7     5 1
    14     5    15 1
    15     5    16 1
    16     7     6 1
@<TRIPOS>SUBSTRUCTURE
     1 MB3         1 TEMP              0 ****  ****    0 ROOT
