@<TRIPOS>MOLECULE
molecule
   39    40     1     0     0
SMALL
bcc


@<TRIPOS>ATOM
      1 C19          0.0000     0.0000     0.0000 ca         1 MB4      -0.059000
      2 C18          1.3820     0.0000     0.0000 ca         1 MB4      -0.147000
      3 C17          2.0730     0.0000     1.1980 ca         1 MB4       0.011700
      4 C21         -0.6920     0.0070     1.1970 ca         1 MB4      -0.152000
      5 C22         -0.0010     0.0140     2.3940 ca         1 MB4      -0.005000
      6 C16          1.3820     0.0000     2.3940 ca         1 MB4      -0.309500
      7 S13          2.2630     0.0080     3.9200 sy         1 MB4       1.421900
      8 O14          1.2860     0.1180     4.9470 o          1 MB4      -0.604800
      9 O15          3.1990    -1.0590     3.8480 o          1 MB4      -0.604800
     10 N12          3.1490     1.4070     3.9660 ns         1 MB4      -0.649300
     11 C10          2.5240     2.5990     4.0220 c          1 MB4       0.803100
     12 O11          1.3120     2.6540     3.9450 o          1 MB4      -0.594100
     13 N9           3.2430     3.7310     4.1620 ns         1 MB4      -0.482100
     14 C8           2.5910     4.9590     4.3270 ca         1 MB4       0.054300
     15 C7           1.3920     5.0320     5.0310 ca         1 MB4      -0.106000
     16 C6           0.7840     6.2690     5.1680 ca         1 MB4      -0.129300
     17 C23          3.1330     6.1210     3.7960 ca         1 MB4       0.380200
     18 N24          2.5210     7.2790     3.9480 nb         1 MB4      -0.581000
     19 C5           1.3820     7.3810     4.6050 ca         1 MB4       0.121200
     20 S1           0.6150     8.9590     4.7730 sy         1 MB4       1.168800
     21 O2           1.0950     9.7550     3.6970 o          1 MB4      -0.503300
     22 O3          -0.7650     8.7120     5.0010 o          1 MB4      -0.503300
     23 N4           1.2050     9.6450     6.1600 nz         1 MB4      -0.807500
     24 C20          3.5800    -0.0010     1.1970 c3         1 MB4      -0.094800
     25 H1          -0.5410    -0.0050    -0.9380 ha         1 MB4       0.141000
     26 H2           1.9240     0.0220    -0.9380 ha         1 MB4       0.142000
     27 H3          -1.7750    -0.0270     1.1970 ha         1 MB4       0.144000
     28 H4          -0.5420    -0.0110     3.3320 ha         1 MB4       0.160000
     29 H5           4.1490     1.3640     4.0040 hn         1 MB4       0.346500
     30 H6           4.2430     3.6910     4.1710 hn         1 MB4       0.343500
     31 H7           0.9460     4.1430     5.4610 ha         1 MB4       0.206000
     32 H8          -0.1510     6.3630     5.7070 ha         1 MB4       0.168000
     33 H9           4.0680     6.0760     3.2500 h4         1 MB4       0.056100
     34 H10          0.7470    10.5210     6.3190 hn         1 MB4       0.492800
     35 H11          2.1900     9.7950     6.0660 hn         1 MB4       0.492800
     36 H12          3.9410    -0.2400     0.2030 hc         1 MB4       0.061033
     37 H13          3.9410    -0.7430     1.8990 hc         1 MB4       0.061033
     38 H14          3.9420     0.9770     1.4870 hc         1 MB4       0.061033
     39 H43          1.0390     9.0310     6.9330 hn         1 MB4       0.492800
@<TRIPOS>BOND
     1     8     7 2
     2     9     7 2
     3     5     4 ar
     4     5     6 ar
     5     7     6 1
     6     7    10 1
     7     4     1 ar
     8     6     3 ar
     9    10    11 1
    10    12    11 2
    11     1     2 ar
    12    11    13 1
    13     3     2 ar
    14     3    24 1
    15    13    14 1
    16    15    14 ar
    17    15    16 ar
    18    14    17 ar
    19    16    19 ar
    20    17    18 ar
    21    19    18 ar
    22    19    20 1
    23    22    20 2
    24    21    20 2
    25    20    23 1
    26     1    25 1
    27     2    26 1
    28     4    27 1
    29     5    28 1
    30    10    29 1
    31    13    30 1
    32    15    31 1
    33    16    32 1
    34    17    33 1
    35    23    34 1
    36    23    35 1
    37    24    36 1
    38    24    37 1
    39    24    38 1
    40    39    23 1
@<TRIPOS>SUBSTRUCTURE
     1 MB4         1 TEMP              0 ****  ****    0 ROOT
