@<TRIPOS>MOLECULE
MB6
   36    37     1     0     0
SMALL
bcc


@<TRIPOS>ATOM
      1 Cl1          0.0000     0.0000     0.0000 cl         1 MB6       0.001600
      2 C19          1.7370     0.0000     0.0000 ca         1 MB6       0.015400
      3 C18          2.4280     0.0000     1.1980 ca         1 MB6      -0.135500
      4 C17          3.8100    -0.0000     1.1970 ca         1 MB6       0.024500
      5 C21          2.4280    -0.0070    -1.1980 ca         1 MB6      -0.135500
      6 C22          3.8100    -0.0130    -1.1970 ca         1 MB6       0.024500
      7 C16          4.5020    -0.0010    -0.0000 ca         1 MB6      -0.173500
      8 S13          6.2640    -0.0080     0.0000 sy         1 MB6       1.053900
      9 O14          6.6630    -0.5400     1.2560 o          1 MB6      -0.548800
     10 O15          6.6620    -0.5700    -1.2430 o          1 MB6      -0.548800
     11 N12          6.7610     1.5710    -0.0190 ns         1 MB6      -0.302300
     12 C10          6.4920     2.3750     1.0280 c          1 MB6       0.637100
     13 O11          5.8860     1.9400     1.9890 o          1 MB6      -0.665100
     14 N9           6.8970     3.6600     1.0130 ns         1 MB6      -0.036100
     15 C8           6.5340     4.5200     2.0550 ca         1 MB6      -0.088700
     16 C7           6.2650     5.8590     1.8030 ca         1 MB6       0.347200
     17 N6           5.9230     6.6720     2.7820 nb         1 MB6      -0.447000
     18 C23          6.4340     4.0470     3.3610 ca         1 MB6      -0.093000
     19 C24          6.0720     4.9360     4.3590 ca         1 MB6      -0.080300
     20 C5           5.8250     6.2560     4.0300 ca         1 MB6       0.192200
     21 S1           5.3650     7.3950     5.2920 sy         1 MB6       0.863800
     22 O2           5.8610     6.8630     6.5130 o          1 MB6      -0.487300
     23 O3           5.7070     8.6870     4.8110 o          1 MB6      -0.487300
     24 N4           3.7120     7.3600     5.4050 nz         1 MB6      -0.132500
     25 H1           1.8870     0.0010     2.1360 ha         1 MB6       0.124000
     26 H2           4.3520     0.0050     2.1360 ha         1 MB6       0.133000
     27 H3           1.8870    -0.0160    -2.1370 ha         1 MB6       0.124000
     28 H4           4.3520    -0.0160    -2.1350 ha         1 MB6       0.133000
     29 H5           7.2900     1.9190    -0.7940 hn         1 MB6       0.232500
     30 H6           7.4810     3.9920     0.2710 hn         1 MB6       0.187500
     31 H7           6.3360     6.2390     0.7910 h4         1 MB6       0.007100
     32 H8           6.6330     3.0070     3.5910 ha         1 MB6       0.182000
     33 H9           5.9870     4.6020     5.3860 ha         1 MB6       0.137000
     34 H10          3.4090     6.4240     5.5860 hn         1 MB6       0.313467
     35 H11          3.3120     7.6800     4.5450 hn         1 MB6       0.313467
     36 H43          3.4160     7.9570     6.1520 hn         1 MB6       0.313467
@<TRIPOS>BOND
     1     1     2 1   
     2     2     3 ar  
     3     2     5 ar  
     4     3     4 ar  
     5     3    25 1   
     6     4     7 ar  
     7     4    26 1   
     8     5     6 ar  
     9     5    27 1   
    10     6     7 ar  
    11     6    28 1   
    12     7     8 1   
    13     8     9 2   
    14     8    10 2   
    15     8    11 1   
    16    11    12 1   
    17    11    29 1   
    18    12    13 2   
    19    12    14 1   
    20    14    15 1   
    21    14    30 1   
    22    15    16 ar  
    23    15    18 ar  
    24    16    17 ar  
    25    16    31 1   
    26    17    20 ar  
    27    18    19 ar  
    28    18    32 1   
    29    19    20 ar  
    30    19    33 1   
    31    20    21 1   
    32    21    22 2   
    33    21    23 2   
    34    21    24 1   
    35    24    34 1   
    36    24    35 1   
    37    24    36 1   
@<TRIPOS>SUBSTRUCTURE
     1 MB6         1 TEMP              0 ****  ****    0 ROOT
