@<TRIPOS>MOLECULE
molecule
   36    37     1     0     0
SMALL
bcc


@<TRIPOS>ATOM
      1 Cl1          0.0000     0.0000     0.0000 cl         1 MB6      -0.083400
      2 C19          1.7370     0.0000     0.0000 ca         1 MB6       0.086400
      3 C18          2.4280     0.0000     1.1980 ca         1 MB6      -0.150000
      4 C17          3.8100    -0.0000     1.1970 ca         1 MB6      -0.009500
      5 C21          2.4280    -0.0070    -1.1980 ca         1 MB6      -0.150000
      6 C22          3.8100    -0.0130    -1.1970 ca         1 MB6      -0.009500
      7 C16          4.5020    -0.0010    -0.0000 ca         1 MB6      -0.325500
      8 S13          6.2640    -0.0080     0.0000 sy         1 MB6       1.417900
      9 O14          6.6630    -0.5400     1.2560 o          1 MB6      -0.594300
     10 O15          6.6620    -0.5700    -1.2430 o          1 MB6      -0.594300
     11 N12          6.7610     1.5710    -0.0190 ns         1 MB6      -0.648300
     12 C10          6.4920     2.3750     1.0280 c          1 MB6       0.808100
     13 O11          5.8860     1.9400     1.9890 o          1 MB6      -0.617100
     14 N9           6.8970     3.6600     1.0130 ns         1 MB6      -0.478100
     15 C8           6.5340     4.5200     2.0550 ca         1 MB6       0.049300
     16 C7           6.2650     5.8590     1.8030 ca         1 MB6       0.383200
     17 N6           5.9230     6.6720     2.7820 nb         1 MB6      -0.581000
     18 C23          6.4340     4.0470     3.3610 ca         1 MB6      -0.105000
     19 C24          6.0720     4.9360     4.3590 ca         1 MB6      -0.131300
     20 C5           5.8250     6.2560     4.0300 ca         1 MB6       0.122200
     21 S1           5.3650     7.3950     5.2920 sy         1 MB6       1.171800
     22 O2           5.8610     6.8630     6.5130 o          1 MB6      -0.504300
     23 O3           5.7070     8.6870     4.8110 o          1 MB6      -0.504300
     24 N4           3.7120     7.3600     5.4050 nz         1 MB6      -0.807500
     25 H1           1.8870     0.0010     2.1360 ha         1 MB6       0.155500
     26 H2           4.3520     0.0050     2.1360 ha         1 MB6       0.163500
     27 H3           1.8870    -0.0160    -2.1370 ha         1 MB6       0.155500
     28 H4           4.3520    -0.0160    -2.1350 ha         1 MB6       0.163500
     29 H5           7.2900     1.9190    -0.7940 hn         1 MB6       0.350500
     30 H6           7.4810     3.9920     0.2710 hn         1 MB6       0.349500
     31 H7           6.3360     6.2390     0.7910 h4         1 MB6       0.056100
     32 H8           6.6330     3.0070     3.5910 ha         1 MB6       0.211000
     33 H9           5.9870     4.6020     5.3860 ha         1 MB6       0.168000
     34 H10          3.4090     6.4240     5.5860 hn         1 MB6       0.493467
     35 H11          3.3120     7.6800     4.5450 hn         1 MB6       0.493467
     36 H43          3.4160     7.9570     6.1520 hn         1 MB6       0.493467
@<TRIPOS>BOND
     1    10     8 2
     2     9     8 2
     3     8     7 1
     4     8    11 1
     5     6     7 ar
     6     6     5 ar
     7     7     4 ar
     8    11    12 1
     9     5     2 ar
    10    13    12 2
    11    12    14 1
    12     4     3 ar
    13    14    15 1
    14     2     3 ar
    15     2     1 1
    16    16    15 ar
    17    16    17 ar
    18    15    18 ar
    19    17    20 ar
    20    18    19 ar
    21    20    19 ar
    22    20    21 1
    23    22    21 2
    24    23    21 2
    25    21    24 1
    26     3    25 1
    27     4    26 1
    28     5    27 1
    29     6    28 1
    30    11    29 1
    31    14    30 1
    32    16    31 1
    33    18    32 1
    34    19    33 1
    35    24    34 1
    36    24    35 1
    37    36    24 1
@<TRIPOS>SUBSTRUCTURE
     1 MB6         1 TEMP              0 ****  ****    0 ROOT
