@<TRIPOS>MOLECULE
molecule
   39    40     1     0     0
SMALL
bcc


@<TRIPOS>ATOM
      1 C20          0.0000     0.0000     0.0000 c3         1 MB7      -0.059800
      2 C19          1.5070     0.0000     0.0000 ca         1 MB7      -0.016300
      3 C18          2.1980     0.0000     1.1970 ca         1 MB7      -0.156000
      4 C17          3.5810    -0.0060     1.1960 ca         1 MB7      -0.015500
      5 C21          2.1980    -0.0070    -1.1970 ca         1 MB7      -0.156000
      6 C22          3.5800    -0.0080    -1.1980 ca         1 MB7      -0.015500
      7 C16          4.2710    -0.0120    -0.0000 ca         1 MB7      -0.328500
      8 S13          6.0340    -0.0190    -0.0010 sy         1 MB7       1.415900
      9 O14          6.4360     0.5200    -1.2530 o          1 MB7      -0.598300
     10 O15          6.4370     0.5280     1.2470 o          1 MB7      -0.598300
     11 N12          6.5170    -1.6020     0.0040 ns         1 MB7      -0.648300
     12 C10          6.2420    -2.3950    -1.0510 c          1 MB7       0.807100
     13 O11          5.6400    -1.9460    -2.0070 o          1 MB7      -0.609100
     14 N9           6.6370    -3.6830    -1.0470 ns         1 MB7      -0.480100
     15 C8           6.2670    -4.5320    -2.0970 ca         1 MB7       0.045300
     16 C7           6.1700    -4.0440    -3.3990 ca         1 MB7      -0.095000
     17 C6           5.8010    -4.9220    -4.4040 ca         1 MB7      -0.099300
     18 C23          5.9980    -5.8720    -1.8580 ca         1 MB7       0.389200
     19 N24          5.6500    -6.6750    -2.8460 nb         1 MB7      -0.655000
     20 C5           5.5430    -6.2430    -4.0870 ca         1 MB7       0.134200
     21 S1           5.0740    -7.3660    -5.3590 sy         1 MB7       1.188800
     22 O2           4.2510    -6.6340    -6.2570 o          1 MB7      -0.514800
     23 O3           6.2610    -8.0340    -5.7630 o          1 MB7      -0.514800
     24 N4           4.1020    -8.5140    -4.6660 nz         1 MB7      -0.801500
     25 H1          -0.3610     0.7430     0.7010 hc         1 MB7       0.053700
     26 H2          -0.3610    -0.9790     0.2930 hc         1 MB7       0.053700
     27 H3          -0.3610     0.2360    -0.9940 hc         1 MB7       0.053700
     28 H4           1.6570     0.0050     2.1350 ha         1 MB7       0.142500
     29 H5           4.1220    -0.0070     2.1340 ha         1 MB7       0.156500
     30 H6           1.6560    -0.0040    -2.1350 ha         1 MB7       0.142500
     31 H7           4.1220    -0.0130    -2.1360 ha         1 MB7       0.156500
     32 H8           7.0290    -1.9660     0.7830 hn         1 MB7       0.347500
     33 H9           7.2070    -4.0290    -0.3010 hn         1 MB7       0.345500
     34 H10          6.3790    -3.0040    -3.6200 ha         1 MB7       0.214000
     35 H11          5.7130    -4.5770    -5.4270 ha         1 MB7       0.175000
     36 H12          6.0760    -6.2640    -0.8510 h4         1 MB7       0.050100
     37 H13          4.6250    -9.0250    -3.9820 hn         1 MB7       0.496800
     38 H14          3.3220    -8.0690    -4.2260 hn         1 MB7       0.496800
     39 H43          3.7730    -9.1430    -5.3720 hn         1 MB7       0.496800
@<TRIPOS>BOND
     1     9     8 2
     2    10     8 2
     3     8     7 1
     4     8    11 1
     5     4     7 ar
     6     4     3 ar
     7     7     6 ar
     8     3     2 ar
     9    11    12 1
    10    13    12 2
    11    12    14 1
    12     6     5 ar
    13     2     5 ar
    14     2     1 1
    15    14    15 1
    16    18    15 ar
    17    18    19 ar
    18    15    16 ar
    19    19    20 ar
    20    16    17 ar
    21    20    17 ar
    22    20    21 1
    23    24    21 1
    24    22    21 2
    25    21    23 2
    26     1    25 1
    27     1    26 1
    28     1    27 1
    29     3    28 1
    30     4    29 1
    31     5    30 1
    32     6    31 1
    33    11    32 1
    34    14    33 1
    35    16    34 1
    36    17    35 1
    37    18    36 1
    38    24    37 1
    39    24    38 1
    40    39    24 1
@<TRIPOS>SUBSTRUCTURE
     1 MB7         1 TEMP              0 ****  ****    0 ROOT
