@<TRIPOS>MOLECULE
MB8
   14    13     1     0     0
SMALL
bcc


@<TRIPOS>ATOM
      1 C          -0.0940    0.2380    0.1030 c         1 MB8      0.903800
      2 O           0.9260   -0.4160    0.4660 o         1 MB8     -0.839800
      3 O2         -0.6520    1.1170    0.8230 o         1 MB8     -0.839800
      4 C2         -0.7110   -0.0440   -1.2590 ce        1 MB8     -0.144400
      5 C3         -2.1740   -0.2750   -1.2190 c3        1 MB8     -0.048900
      6 C4         -0.0280   -0.0580   -2.4110 c2        1 MB8     -0.216200
      7 C5          1.4260    0.1540   -2.5340 c3        1 MB8     -0.048900
      8 H2         -2.3860   -1.2660   -0.7460 hc        1 MB8      0.025700
      9 H3         -2.6360   -0.2650   -2.2370 hc        1 MB8      0.025700
     10 H4         -2.6520    0.5200   -0.5920 hc        1 MB8      0.025700
     11 H5         -0.5510   -0.2350   -3.3670 ha        1 MB8      0.070000
     12 H6          1.8880   -0.6670   -3.1390 hc        1 MB8      0.029367
     13 H7          1.6360    1.1230   -3.0530 hc        1 MB8      0.029367
     14 H8          1.9120    0.1690   -1.5240 hc        1 MB8      0.029367
@<TRIPOS>BOND
     1    1    2 1   
     2    1    3 1   
     3    1    4 1   
     4    4    5 1   
     5    4    6 2   
     6    5    8 1   
     7    5    9 1   
     8    5   10 1   
     9    6    7 1   
    10    6   11 1   
    11    7   12 1   
    12    7   13 1   
    13    7   14 1   
@<TRIPOS>SUBSTRUCTURE
     1 MB8         1 TEMP              0 ****  ****    0 ROOT
