@<TRIPOS>MOLECULE
molecule
   14    13     1     0     0
SMALL
bcc


@<TRIPOS>ATOM
      1 C            0.0000     0.0000     0.0000 c          1 MB8       0.825800
      2 O            1.2150     0.0000     0.0000 o          1 MB8      -0.842300
      3 O2          -0.6740     0.0000     1.1670 o          1 MB8      -0.842300
      4 C2          -0.7350     0.0050    -1.2730 ce         1 MB8      -0.026400
      5 C3          -2.2420     0.0050    -1.2720 c3         1 MB8      -0.038900
      6 C4          -0.0700     0.0110    -2.4260 c2         1 MB8      -0.570200
      7 C5           1.4370     0.0110    -2.4260 c3         1 MB8      -0.069900
      8 H2          -2.6030    -0.8690    -0.7440 hc         1 MB8       0.035033
      9 H3          -2.6030     0.9000    -0.7790 hc         1 MB8       0.035033
     10 H4          -2.6030    -0.0150    -2.2940 hc         1 MB8       0.035033
     11 H5           0.5410     0.8860    -2.2390 ha         1 MB8       0.337000
     12 H6           1.7980     0.8260    -1.8100 hc         1 MB8       0.040700
     13 H7           1.7980     0.1370    -3.4390 hc         1 MB8       0.040700
     14 H8           1.7980    -0.9300    -2.0280 hc         1 MB8       0.040700
@<TRIPOS>BOND
     1     1     2 1
     2     1     3 1
     3     1     4 1
     4     4     5 1
     5     6     4 2
     6     6     7 1
     7     5     8 1
     8     5     9 1
     9     5    10 1
    10     6    11 1
    11     7    12 1
    12     7    13 1
    13     7    14 1
@<TRIPOS>SUBSTRUCTURE
     1 MB8         1 TEMP              0 ****  ****    0 ROOT
