@<TRIPOS>MOLECULE
molecule
   40    43     1     0     0
SMALL
bcc


@<TRIPOS>ATOM
      1 C1K          0.0000     0.0000     0.0000 c3         1 MB9      -0.256900
      2 C1I          1.5300     0.0000     0.0000 c3         1 MB9      -0.286200
      3 N1M          2.0200     0.0000     1.3850 n7         1 MB9      -0.594200
      4 C1J          1.5830     1.2050     2.1020 c3         1 MB9      -0.286200
      5 C1L          0.0550     1.2410     2.1610 c3         1 MB9      -0.256900
      6 C1W         -0.5060     1.2480     0.7340 c3         1 MB9       0.547400
      7 N1N         -0.0300     2.4400     0.0360 ns         1 MB9      -0.710900
      8 C1O         -0.5970     3.6550     0.2090 c          1 MB9       0.714700
      9 O1C         -0.0760     4.6640    -0.2250 o          1 MB9      -0.622500
     10 C1Q         -1.8720     3.7030     0.9440 cc         1 MB9      -0.121300
     11 N1V         -2.5810     4.7790     1.4180 na         1 MB9       0.001600
     12 C1A         -2.1950     6.1850     1.2800 c3         1 MB9       0.030600
     13 C1T         -3.7060     4.3170     2.0380 ca         1 MB9      -0.037200
     14 C1H         -4.7430     4.9830     2.6880 ca         1 MB9      -0.128000
     15 C1P         -5.7560     4.2030     3.2210 ca         1 MB9       0.054400
     16 Cl1D        -7.0720     4.9810     4.0420 cl         1 MB9      -0.104400
     17 C1F         -5.7520     2.8190     3.1190 ca         1 MB9      -0.146000
     18 C1G         -4.7470     2.1350     2.4850 ca         1 MB9      -0.070000
     19 C1S         -3.7050     2.8970     1.9330 ca         1 MB9      -0.084800
     20 C1R         -2.5530     2.5450     1.2340 cd         1 MB9      -0.163400
     21 C1U         -2.0360     1.1970     0.8000 c3         1 MB9       0.071600
     22 C1E         -2.5760     0.8670    -0.5290 c1         1 MB9       0.223700
     23 N1B         -3.0070     0.6250    -1.5520 n1         1 MB9      -0.341800
     24 H1K         -0.3500    -0.1170    -1.0180 hc         1 MB9       0.073950
     25 H1KA        -0.3500     0.9480     0.3910 hc         1 MB9       0.073950
     26 H1I          1.8800    -0.8180    -0.6170 h1         1 MB9       0.182700
     27 H1IA         1.8800    -0.1430     1.0150 h1         1 MB9       0.182700
     28 HN1M         3.0170    -0.0870     1.3860 hn         1 MB9       0.408800
     29 H1J          0.5080     1.1670     2.2290 h1         1 MB9       0.182700
     30 H1JA         2.0570     1.2250     3.0760 h1         1 MB9       0.182700
     31 H1L         -0.3310     1.3910     1.1600 hc         1 MB9       0.073950
     32 H1LA        -0.2520     2.0680     2.7900 hc         1 MB9       0.073950
     33 HN1N         0.8660     2.5000    -0.4060 hn         1 MB9       0.365500
     34 H1A         -2.5250     6.7370     2.1520 h1         1 MB9       0.066033
     35 H1AA        -1.1170     6.2570     1.1940 h1         1 MB9       0.066033
     36 H1AB        -2.6570     6.6020     0.3930 h1         1 MB9       0.066033
     37 H1H         -4.7170     6.0610     2.7850 ha         1 MB9       0.151000
     38 H1F         -6.5630     2.2420     3.5490 ha         1 MB9       0.145000
     39 H1G         -4.7800     1.0540     2.4270 ha         1 MB9       0.146000
     40 H1U         -2.3410     0.4460     1.5180 hc         1 MB9       0.123700
@<TRIPOS>BOND
     1     1     2 1
     2     1     6 1
     3     2     3 1
     4     3     4 1
     5     4     5 1
     6     5     6 1
     7     6     7 1
     8     6    21 1
     9     7     8 1
    10     8     9 2
    11     8    10 1
    12    10    11 1
    13    10    20 2
    14    11    12 1
    15    11    13 1
    16    13    14 ar
    17    13    19 ar
    18    14    15 ar
    19    15    16 1
    20    15    17 ar
    21    17    18 ar
    22    18    19 ar
    23    19    20 1
    24    20    21 1
    25    21    22 1
    26    22    23 3
    27     1    24 1
    28     1    25 1
    29     2    26 1
    30     2    27 1
    31     3    28 1
    32     4    29 1
    33     4    30 1
    34     5    31 1
    35     5    32 1
    36     7    33 1
    37    12    34 1
    38    12    35 1
    39    12    36 1
    40    14    37 1
    41    17    38 1
    42    18    39 1
    43    21    40 1
@<TRIPOS>SUBSTRUCTURE
     1 MB9         1 TEMP              0 ****  ****    0 ROOT
