@<TRIPOS>MOLECULE
MBA
   20    19     1     0     0
SMALL
bcc


@<TRIPOS>ATOM
      1 N            0.0000     0.0000     0.0000 nz         1 MBA       0.079400
      2 C1           1.4680     0.0000     0.0000 c3         1 MBA      -0.052200
      3 C2           1.9790     0.0000     1.4420 c3         1 MBA      -0.067700
      4 C2'          1.4690    -1.2480     2.1620 c3         1 MBA      -0.015100
      5 C3           3.5080    -0.0000     1.4400 c3         1 MBA      -0.015400
      6 C4           4.0200    -0.0010     2.8820 c3         1 MBA       0.005900
      7 HN1         -0.3340     0.3450    -0.8780 hn         1 MBA       0.225467
      8 HN2         -0.3340     0.5880     0.7380 hn         1 MBA       0.225467
      9 H11          1.8290    -0.8840    -0.5110 hx         1 MBA       0.086200
     10 H12          1.8290     0.8840    -0.5110 hx         1 MBA       0.086200
     11 H2           1.6180     0.8850     1.9520 hc         1 MBA       0.047700
     12 H2'1         1.8490    -1.2600     3.1770 hc         1 MBA       0.021033
     13 H2'2         0.3850    -1.2360     2.1830 hc         1 MBA       0.021033
     14 H2'3         1.8100    -2.1330     1.6380 hc         1 MBA       0.021033
     15 H31          3.8690     0.8850     0.9300 hc         1 MBA       0.027700
     16 H32          3.8690    -0.8840     0.9290 hc         1 MBA       0.027700
     17 H41          4.0270    -1.0150     3.2620 hc         1 MBA       0.016700
     18 H42          3.3700     0.6100     3.4960 hc         1 MBA       0.016700
     19 H43          5.0250     0.4020     2.9090 hc         1 MBA       0.016700
     20 HN3         -0.3340    -0.9310     0.1520 hn         1 MBA       0.225467
@<TRIPOS>BOND
     1     1     2 1   
     2     1     7 1   
     3     1     8 1   
     4     1    20 1   
     5     2     3 1   
     6     2     9 1   
     7     2    10 1   
     8     3     4 1   
     9     3     5 1   
    10     3    11 1   
    11     4    12 1   
    12     4    13 1   
    13     4    14 1   
    14     5     6 1   
    15     5    15 1   
    16     5    16 1   
    17     6    17 1   
    18     6    18 1   
    19     6    19 1   
@<TRIPOS>SUBSTRUCTURE
     1 MBA         1 TEMP              0 ****  ****    0 ROOT
