@<TRIPOS>MOLECULE
MBB
   66    71     1     0     0
SMALL
bcc


@<TRIPOS>ATOM
      1 C            0.0000     0.0000     0.0000 ca         1 MBB       0.096600
      2 C1           1.3840     0.0010     2.4010 ca         1 MBB      -0.182900
      3 C2           1.3910     0.0000     0.0000 ca         1 MBB      -0.203000
      4 C3           2.0810     0.0000     1.1910 ca         1 MBB      -0.038000
      5 C4          -0.6970     0.0000     1.2030 ca         1 MBB      -0.202000
      6 C5          -0.0120    -0.0060     2.3980 ca         1 MBB       0.017700
      7 N           -0.6950     0.0000    -1.2070 nh         1 MBB      -0.389000
      8 C6           2.1210    -0.0020     3.6810 cc         1 MBB       0.296400
      9 C7           2.6790    -0.4580     5.7380 ca         1 MBB       0.062400
     10 C8           3.6330     0.4460     5.2360 ca         1 MBB      -0.274200
     11 C9           4.6820     0.8710     6.0400 ca         1 MBB      -0.085000
     12 C10          4.7920     0.4140     7.3230 ca         1 MBB      -0.092000
     13 C11          3.8530    -0.4860     7.8390 ca         1 MBB      -0.132900
     14 C12          2.7990    -0.9280     7.0470 ca         1 MBB       0.009000
     15 N1           1.7860    -0.6900     4.7440 nd         1 MBB      -0.517100
     16 N2           3.2580     0.7180     3.9350 na         1 MBB       0.264700
     17 C13          3.9850    -0.9730     9.2280 cc         1 MBB       0.283400
     18 C14          3.9720    -2.3030    10.9550 ca         1 MBB       0.087400
     19 C15          4.3620    -1.0310    11.4100 ca         1 MBB      -0.291200
     20 C16          4.6510    -0.8310    12.7520 ca         1 MBB      -0.063000
     21 C17          4.5560    -1.8820    13.6400 ca         1 MBB      -0.154000
     22 C18          4.1700    -3.1450    13.1980 ca         1 MBB      -0.005400
     23 N3           3.7560    -2.2020     9.6200 nd         1 MBB      -0.517100
     24 N4           4.3620    -0.2080    10.2970 na         1 MBB       0.262700
     25 C19          3.8840    -3.3610    11.8640 ca         1 MBB      -0.060000
     26 N5           4.0780    -4.2010    14.1110 nh         1 MBB      -0.357000
     27 N6           5.5250    -5.7560    16.0860 n3         1 MBB      -0.529600
     28 C20          4.4450    -3.6600    15.4250 c3         1 MBB       0.121800
     29 C21          4.4850    -4.7890    16.4540 c3         1 MBB       0.137800
     30 C22          5.1580    -6.2980    14.7720 c3         1 MBB       0.137800
     31 C23          5.1170    -5.1690    13.7430 c3         1 MBB       0.121800
     32 C24          5.4280    -6.8660    17.0430 c3         1 MBB       0.174100
     33 CN1         -2.1550    -0.1230    -1.2120 c3         1 MBB       0.210600
     34 CN2          0.0330     0.1230    -2.4720 c3         1 MBB       0.210600
     35 C25         -0.7690    -0.0060     3.7010 c3         1 MBB       0.047200
     36 H2           1.9320    -0.0000    -0.9390 ha         1 MBB       0.117000
     37 H3           3.1640     0.0020     1.1900 ha         1 MBB       0.093000
     38 H4          -1.7810    -0.0020     1.2010 ha         1 MBB       0.123000
     39 H9           5.4150     1.5670     5.6500 ha         1 MBB       0.100000
     40 H10          5.6100     0.7530     7.9460 ha         1 MBB       0.100000
     41 H12          2.0710    -1.6250     7.4460 ha         1 MBB       0.128000
     42 HN2          3.7970     1.2240     3.2610 hn         1 MBB       0.128700
     43 H16          4.9520     0.1490    13.1020 ha         1 MBB       0.098000
     44 H17          4.7790    -1.7230    14.6880 ha         1 MBB       0.130000
     45 HN4          4.4620     0.7880    10.3020 hn         1 MBB       0.127700
     46 H19          3.5840    -4.3450    11.5250 ha         1 MBB       0.122000
     47 H201         3.7100    -2.9230    15.7270 h1         1 MBB       0.027950
     48 H202         5.4220    -3.1960    15.3610 h1         1 MBB       0.027950
     49 H211         4.7080    -4.3760    17.4310 h1         1 MBB       0.018200
     50 H212         3.5230    -5.2870    16.4780 h1         1 MBB       0.018200
     51 H221         4.1810    -6.7620    14.8350 h1         1 MBB       0.018200
     52 H222         5.8930    -7.0340    14.4690 h1         1 MBB       0.018200
     53 H231         4.8940    -5.5810    12.7660 h1         1 MBB       0.027950
     54 H232         6.0790    -4.6700    13.7180 h1         1 MBB       0.027950
     55 H241         6.1450    -7.6340    16.7800 h1         1 MBB       0.003367
     56 H242         4.4280    -7.2800    17.0160 h1         1 MBB       0.003367
     57 H243         5.6410    -6.5010    18.0410 h1         1 MBB       0.003367
     58 HN11        -2.4430    -1.0240    -0.6840 h1         1 MBB       0.005867
     59 HN12        -2.5920     0.7390    -0.7220 h1         1 MBB       0.005867
     60 HN13        -2.5090    -0.1750    -2.2340 h1         1 MBB       0.005867
     61 HN21         0.6350     1.0240    -2.4560 h1         1 MBB       0.005867
     62 HN22         0.6760    -0.7390    -2.6040 h1         1 MBB       0.005867
     63 HN23        -0.6730     0.1760    -3.2920 h1         1 MBB       0.005867
     64 H251        -1.8090     0.2330     3.5150 hc         1 MBB       0.018033
     65 H252        -0.3420     0.7350     4.3670 hc         1 MBB       0.018033
     66 H253        -0.6990    -0.9850     4.1590 hc         1 MBB       0.018033
@<TRIPOS>BOND
     1     1     3 ar  
     2     1     5 ar  
     3     1     7 1   
     4     2     4 ar  
     5     2     6 ar  
     6     2     8 1   
     7     3     4 ar  
     8     3    36 1   
     9     4    37 1   
    10     5     6 ar  
    11     5    38 1   
    12     6    35 1   
    13     7    33 1   
    14     7    34 1   
    15     8    15 2   
    16     8    16 1   
    17     9    10 ar  
    18     9    14 ar  
    19     9    15 1   
    20    10    11 ar  
    21    10    16 1   
    22    11    12 ar  
    23    11    39 1   
    24    12    13 ar  
    25    12    40 1   
    26    13    14 ar  
    27    13    17 1   
    28    14    41 1   
    29    16    42 1   
    30    17    23 2   
    31    17    24 1   
    32    18    19 ar  
    33    18    23 1   
    34    18    25 ar  
    35    19    20 ar  
    36    19    24 1   
    37    20    21 ar  
    38    20    43 1   
    39    21    22 ar  
    40    21    44 1   
    41    22    25 ar  
    42    22    26 1   
    43    24    45 1   
    44    25    46 1   
    45    26    28 1   
    46    26    31 1   
    47    27    29 1   
    48    27    30 1   
    49    27    32 1   
    50    28    29 1   
    51    28    47 1   
    52    28    48 1   
    53    29    49 1   
    54    29    50 1   
    55    30    31 1   
    56    30    51 1   
    57    30    52 1   
    58    31    53 1   
    59    31    54 1   
    60    32    55 1   
    61    32    56 1   
    62    32    57 1   
    63    33    58 1   
    64    33    59 1   
    65    33    60 1   
    66    34    61 1   
    67    34    62 1   
    68    34    63 1   
    69    35    64 1   
    70    35    65 1   
    71    35    66 1   
@<TRIPOS>SUBSTRUCTURE
     1 MBB         1 TEMP              0 ****  ****    0 ROOT
