@<TRIPOS>MOLECULE
MBC
   44    47     1     0     0
SMALL
bcc


@<TRIPOS>ATOM
      1 C1         -0.0630   -0.7020    0.1320 cc        1 MBC     -0.202300
      2 C2          1.3740   -0.6640    0.0610 cc        1 MBC     -0.164300
      3 C3          1.8220   -0.3380    1.3320 cd        1 MBC      0.224400
      4 O4          0.7400   -0.1640    2.2090 os        1 MBC     -0.367800
      5 C5         -0.4160   -0.3950    1.4400 cd        1 MBC      0.288200
      6 C6         -1.6900   -0.2780    2.1020 ca        1 MBC     -0.061500
      7 C7          3.1570   -0.1630    1.8510 cd        1 MBC      0.400800
      8 C8         -2.8620   -0.6340    1.4090 ca        1 MBC     -0.104000
      9 C9         -4.1030   -0.5270    2.0260 ca        1 MBC     -0.086500
     10 C10        -4.1890   -0.0640    3.3450 ca        1 MBC     -0.262900
     11 C11        -3.0300    0.2920    4.0440 ca        1 MBC     -0.086500
     12 C12        -1.7880    0.1860    3.4250 ca        1 MBC     -0.104000
     13 N13         3.4320    0.0840    3.2210 na        1 MBC     -0.253300
     14 C14         4.8130    0.1930    3.3330 ca        1 MBC     -0.030200
     15 C15         5.3400    0.0020    1.9860 ca        1 MBC      0.065400
     16 N16         4.2800   -0.2190    1.0910 nc        1 MBC     -0.525100
     17 C17         6.7200    0.0670    1.7640 ca        1 MBC     -0.012000
     18 C18         7.5430    0.3080    2.8620 ca        1 MBC     -0.289900
     19 C19         7.0280    0.4860    4.1670 ca        1 MBC     -0.097000
     20 C20         5.6680    0.4340    4.4200 ca        1 MBC     -0.108000
     21 C21         8.9980    0.4410    2.6470 ce        1 MBC      0.592800
     22 C22        -5.4970   -0.0050    4.0290 ce        1 MBC      0.587800
     23 N23        -5.9730   -0.6680    5.0100 n2        1 MBC     -0.700100
     24 N24        -6.3990    1.0450    3.4300 n4        1 MBC     -0.823600
     25 N25         9.7030    1.3650    2.1220 n2        1 MBC     -0.703100
     26 N26         9.7460   -0.7670    3.1560 n4        1 MBC     -0.825600
     27 H1         -0.7300   -0.9290   -0.6990 ha        1 MBC      0.183000
     28 H2          1.9850   -0.8540   -0.8220 ha        1 MBC      0.200000
     29 H8         -2.7950   -1.0080    0.3730 ha        1 MBC      0.168000
     30 H9         -5.0070   -0.8370    1.4760 ha        1 MBC      0.150500
     31 H11        -3.0910    0.6510    5.0840 ha        1 MBC      0.150500
     32 H12        -0.8730    0.4650    3.9740 ha        1 MBC      0.168000
     33 HN13        2.7630    0.1700    3.9420 hn        1 MBC      0.330700
     34 H17         7.1250   -0.0620    0.7480 ha        1 MBC      0.170000
     35 H19         7.7180    0.6970    4.9990 ha        1 MBC      0.144000
     36 H20         5.2740    0.5830    5.4360 ha        1 MBC      0.167000
     37 HN23       -5.4110   -1.3810    5.4290 hn        1 MBC      0.492400
     38 H241       -7.3430    1.0230    3.8390 hn        1 MBC      0.472467
     39 H242       -6.4580    0.8800    2.4200 hn        1 MBC      0.472467
     40 HN25        9.2450    2.1850    1.7780 hn        1 MBC      0.493400
     41 H261       10.7660   -0.6500    3.0890 hn        1 MBC      0.470800
     42 H262        9.4800   -0.9170    4.1350 hn        1 MBC      0.470800
     43 H243       -5.9790    1.9660    3.5980 hn        1 MBC      0.472467
     44 H263        9.4600   -1.5800    2.6010 hn        1 MBC      0.470800
@<TRIPOS>BOND
     1    1    2 1
     2    1    5 2
     3    1   27 1
     4    2    3 2
     5    2   28 1
     6    3    4 1
     7    3    7 1
     8    4    5 1
     9    5    6 1
    10    6    8 ar
    11    6   12 ar
    12    7   13 1
    13    7   16 2
    14    8    9 ar
    15    8   29 1
    16    9   10 ar
    17    9   30 1
    18   10   11 ar
    19   10   22 1
    20   11   12 ar
    21   11   31 1
    22   12   32 1
    23   13   14 1
    24   13   33 1
    25   14   15 ar
    26   14   20 ar
    27   15   16 1
    28   15   17 ar
    29   17   18 ar
    30   17   34 1
    31   18   19 ar
    32   18   21 1
    33   19   20 ar
    34   19   35 1
    35   20   36 1
    36   21   25 2
    37   21   26 1
    38   22   23 2
    39   22   24 1
    40   23   37 1
    41   24   38 1
    42   24   39 1
    43   24   43 1
    44   25   40 1
    45   26   41 1
    46   26   42 1
    47   26   44 1
@<TRIPOS>SUBSTRUCTURE
     1 MBC         1 TEMP              0 ****  ****    0 ROOT
