@<TRIPOS>MOLECULE
molecule
   17    17     1     0     0
SMALL
bcc


@<TRIPOS>ATOM
      1 CA1          0.0000     0.0000     0.0000 ca         1 MBD       0.072100
      2 OA1         -0.6810    -0.0050    -1.1770 oh         1 MBD      -0.520100
      3 CA2          1.3910     0.0000     0.0000 ca         1 MBD       0.092100
      4 OA2          2.0730    -0.0090    -1.1760 oh         1 MBD      -0.514100
      5 CA3          2.0810     0.0000     1.2010 ca         1 MBD      -0.087300
      6 CB3          3.5880    -0.0040     1.2070 c3         1 MBD      -0.039800
      7 CA4          1.3860     0.0090     2.3970 ca         1 MBD      -0.125000
      8 CA5          0.0050     0.0140     2.3970 ca         1 MBD      -0.122000
      9 CA6         -0.6890     0.0100     1.2000 ca         1 MBD      -0.156000
     10 HA1         -1.0510    -0.8600    -1.3220 ho         1 MBD       0.424000
     11 HA2          1.9780     0.8270    -1.6020 ho         1 MBD       0.427000
     12 HB31         3.9440    -0.1300     2.2220 hc         1 MBD       0.047033
     13 HB32         3.9490    -0.8210     0.5940 hc         1 MBD       0.047033
     14 HB33         3.9530     0.9340     0.8090 hc         1 MBD       0.047033
     15 HA4          1.9260     0.0110     3.3360 ha         1 MBD       0.135000
     16 HA5         -0.5360     0.0210     3.3350 ha         1 MBD       0.134000
     17 HA6         -1.7720     0.0140     1.2020 ha         1 MBD       0.140000
@<TRIPOS>BOND
     1     1     2 1
     2     1     3 ar
     3     1     9 ar
     4     2    10 1
     5     3     4 1
     6     3     5 ar
     7     4    11 1
     8     5     6 1
     9     5     7 ar
    10     6    12 1
    11     6    13 1
    12     6    14 1
    13     7     8 ar
    14     7    15 1
    15     8     9 ar
    16     8    16 1
    17     9    17 1
@<TRIPOS>SUBSTRUCTURE
     1 MBD         1 TEMP              0 ****  ****    0 ROOT
