@<TRIPOS>MOLECULE
MBD
   17    17     1     0     0
SMALL
bcc


@<TRIPOS>ATOM
      1 CA1         0.0640   -0.0030   -0.0240 ca        1 MBD      0.042100
      2 OA1        -0.5160    0.0250   -1.2770 oh        1 MBD     -0.519100
      3 CA2         1.4740    0.0370    0.0070 ca        1 MBD      0.105100
      4 OA2         2.2370    0.0990   -1.1350 oh        1 MBD     -0.495100
      5 CA3         2.1500    0.0120    1.2420 ca        1 MBD     -0.074300
      6 CB3         3.6280    0.0590    1.2740 c3        1 MBD     -0.044800
      7 CA4         1.3960   -0.0520    2.4180 ca        1 MBD     -0.130000
      8 CA5         0.0040   -0.0900    2.3810 ca        1 MBD     -0.126000
      9 CA6        -0.6720   -0.0660    1.1620 ca        1 MBD     -0.175000
     10 HA1        -1.4750   -0.0120   -1.1580 ho        1 MBD      0.429000
     11 HA2         1.6350    0.0950   -1.8960 ho        1 MBD      0.436000
     12 HB31        3.9830    1.0710    0.9540 hc        1 MBD      0.049033
     13 HB32        4.0190   -0.1510    2.2990 hc        1 MBD      0.049033
     14 HB33        4.0520   -0.6920    0.5610 hc        1 MBD      0.049033
     15 HA4         1.9170   -0.0730    3.3880 ha        1 MBD      0.136000
     16 HA5        -0.5690   -0.1410    3.3180 ha        1 MBD      0.135000
     17 HA6        -1.7700   -0.0960    1.1290 ha        1 MBD      0.134000
@<TRIPOS>BOND
     1    1    2 1   
     2    1    3 ar  
     3    1    9 ar  
     4    2   10 1   
     5    3    4 1   
     6    3    5 ar  
     7    4   11 1   
     8    5    6 1   
     9    5    7 ar  
    10    6   12 1   
    11    6   13 1   
    12    6   14 1   
    13    7    8 ar  
    14    7   15 1   
    15    8    9 ar  
    16    8   16 1   
    17    9   17 1   
@<TRIPOS>SUBSTRUCTURE
     1 MBD         1 TEMP              0 ****  ****    0 ROOT
