@<TRIPOS>MOLECULE
MBF
   23    23     1     0     0
SMALL
bcc


@<TRIPOS>ATOM
      1 O1          0.1740    0.0340   -0.2720 oh        1 MBF     -0.572800
      2 C1          1.5550    0.1940   -0.1540 c3        1 MBF      0.322900
      3 C2          2.0220    0.2080    1.3270 c3        1 MBF      0.077600
      4 F2          1.4300   -0.8170    2.0470 f         1 MBF     -0.235300
      5 C3          3.5600    0.1020    1.3720 c3        1 MBF      0.075100
      6 O3          4.0360   -0.0140    2.6960 oh        1 MBF     -0.587800
      7 C4          4.0470   -1.0910    0.5290 c3        1 MBF      0.086100
      8 O4          5.4590   -1.0840    0.4260 oh        1 MBF     -0.589800
      9 C5          3.4860   -0.9950   -0.8960 c3        1 MBF      0.111100
     10 O5          2.0590   -0.9360   -0.8530 os        1 MBF     -0.453600
     11 C6          3.8290   -2.2460   -1.7100 c3        1 MBF      0.141400
     12 O6          3.4450   -2.0970   -3.0580 oh        1 MBF     -0.593800
     13 H1         -0.0500   -0.8550    0.0440 ho        1 MBF      0.430000
     14 HA          1.8260    1.1570   -0.6670 h2        1 MBF      0.090700
     15 H2          1.7030    1.1850    1.7930 h1        1 MBF      0.086700
     16 H3          4.0160    1.0570    0.9880 h1        1 MBF      0.100700
     17 HB          3.5560   -0.7420    3.1160 ho        1 MBF      0.416000
     18 H4          3.7070   -2.0500    1.0130 h1        1 MBF      0.057700
     19 HC          5.8000   -0.9340    1.3200 ho        1 MBF      0.423000
     20 H5          3.8850   -0.0770   -1.4100 h1        1 MBF      0.070700
     21 H6C1        3.3350   -3.1450   -1.2560 h1        1 MBF      0.065200
     22 H6C2        4.9450   -2.3770   -1.7260 h1        1 MBF      0.065200
     23 H6          2.4890   -1.9540   -3.0670 ho        1 MBF      0.412000
@<TRIPOS>BOND
     1    1    2 1   
     2    1   13 1   
     3    2    3 1   
     4    2   10 1   
     5    2   14 1   
     6    3    4 1   
     7    3    5 1   
     8    3   15 1   
     9    5    6 1   
    10    5    7 1   
    11    5   16 1   
    12    6   17 1   
    13    7    8 1   
    14    7    9 1   
    15    7   18 1   
    16    8   19 1   
    17    9   10 1   
    18    9   11 1   
    19    9   20 1   
    20   11   12 1   
    21   11   21 1   
    22   11   22 1   
    23   12   23 1   
@<TRIPOS>SUBSTRUCTURE
     1 MBF         1 TEMP              0 ****  ****    0 ROOT
