@<TRIPOS>MOLECULE
molecule
   23    23     1     0     0
SMALL
bcc


@<TRIPOS>ATOM
      1 O1           0.0000     0.0000     0.0000 oh         1 MBF      -0.567800
      2 C1           1.4290     0.0000     0.0000 c3         1 MBF       0.311900
      3 C2           1.9370     0.0000     1.4440 c3         1 MBF       0.136600
      4 F2           1.4950    -1.1560     2.0950 f          1 MBF      -0.210300
      5 C3           3.4680     0.0330     1.4350 c3         1 MBF       0.100100
      6 O3           3.9580    -0.1150     2.7700 oh         1 MBF      -0.584800
      7 C4           3.9770    -1.1200     0.5660 c3         1 MBF       0.111100
      8 O4           5.3950    -1.0240     0.4240 oh         1 MBF      -0.603800
      9 C5           3.3160    -1.0360    -0.8120 c3         1 MBF       0.139100
     10 O5           1.9040    -1.1610    -0.6780 os         1 MBF      -0.380600
     11 C6           3.8450    -2.1630    -1.7000 c3         1 MBF       0.152400
     12 O6           3.2330    -2.0830    -2.9880 oh         1 MBF      -0.600800
     13 H1          -0.3140     0.5990    -0.6570 ho         1 MBF       0.412000
     14 HA           1.7940     0.8850    -0.5080 h2         1 MBF       0.028700
     15 H2           1.5610     0.8770     1.9580 h1         1 MBF       0.065700
     16 H3           3.8070     0.9740     1.0210 h1         1 MBF       0.052700
     17 HB           4.2640     0.7190     3.0860 ho         1 MBF       0.408000
     18 H4           3.7190    -2.0640     1.0310 h1         1 MBF       0.075700
     19 HC           5.8100    -1.6800     0.9590 ho         1 MBF       0.417000
     20 H5           3.5490    -0.0780    -1.2610 h1         1 MBF       0.054700
     21 H6C1         3.6110    -3.1190    -1.2480 h1         1 MBF       0.038700
     22 H6C2         4.9190    -2.0660    -1.8050 h1         1 MBF       0.038700
     23 H6           3.6390    -2.7060    -3.5680 ho         1 MBF       0.405000
@<TRIPOS>BOND
     1     1     2 1
     2     1    13 1
     3     2     3 1
     4     2    10 1
     5     2    14 1
     6     3     4 1
     7     3     5 1
     8     3    15 1
     9     5     6 1
    10     5     7 1
    11     5    16 1
    12     6    17 1
    13     7     8 1
    14     7     9 1
    15     7    18 1
    16     8    19 1
    17     9    10 1
    18     9    11 1
    19     9    20 1
    20    11    12 1
    21    11    21 1
    22    11    22 1
    23    12    23 1
@<TRIPOS>SUBSTRUCTURE
     1 MBF         1 TEMP              0 ****  ****    0 ROOT
