@<TRIPOS>MOLECULE
molecule
   29    29     1     0     0
SMALL
bcc


@<TRIPOS>ATOM
      1 N1           0.0000     0.0000     0.0000 n4         1 MBH      -0.353600
      2 N2           1.4540     0.0000     0.0000 nz         1 MBH      -0.626400
      3 C           -0.4900     0.0000     1.3840 c3         1 MBH       0.130100
      4 C1           0.1210     1.1550     2.1340 ca         1 MBH      -0.221300
      5 C2          -0.5160     2.3820     2.1530 ca         1 MBH      -0.119500
      6 C3           0.0450     3.4420     2.8410 ca         1 MBH      -0.108000
      7 C4           1.2430     3.2750     3.5090 ca         1 MBH      -0.070000
      8 C5           1.8800     2.0480     3.4910 ca         1 MBH      -0.108000
      9 C6           1.3170     0.9880     2.8070 ca         1 MBH      -0.119500
     10 C1M         -0.4890     1.2000    -0.6930 c3         1 MBH       0.057100
     11 CA2         -0.4900    -1.1990    -0.6940 c3         1 MBH      -0.053200
     12 CA1          0.0610    -2.4290    -0.0190 c          1 MBH       0.855600
     13 O           -0.2730    -3.6480    -0.4710 o          1 MBH      -0.736800
     14 HN21         1.7870    -0.5580     0.7610 hn         1 MBH       0.495133
     15 HN22         1.7870    -0.3800    -0.8640 hn         1 MBH       0.495133
     16 H1          -0.2120    -0.9300     1.8660 hx         1 MBH       0.163700
     17 H2A         -1.5680     0.0990     1.3860 hx         1 MBH       0.163700
     18 H2          -1.4550     2.5130     1.6290 ha         1 MBH       0.143500
     19 H3          -0.4550     4.4030     2.8550 ha         1 MBH       0.166500
     20 H4           1.6830     4.1060     4.0470 ha         1 MBH       0.168000
     21 H5           2.8180     1.9160     4.0170 ha         1 MBH       0.166500
     22 H6           1.8160     0.0260     2.7930 ha         1 MBH       0.143500
     23 H1M1         0.0670     2.0650    -0.3520 hx         1 MBH       0.117033
     24 H1M2        -1.5410     1.3390    -0.4760 hx         1 MBH       0.117033
     25 H1M3        -0.3530     1.0810    -1.7610 hx         1 MBH       0.117033
     26 HA21        -0.1640    -1.1770    -1.7270 hx         1 MBH       0.129200
     27 HA22        -1.5720    -1.2200    -0.6570 hx         1 MBH       0.129200
     28 OXT          0.8030    -2.3180     0.9270 o          1 MBH      -0.736800
     29 H23          1.7870     0.9380     0.1030 hn         1 MBH       0.495133
@<TRIPOS>BOND
     1     1     2 1
     2     1     3 1
     3     1    10 1
     4     1    11 1
     5     2    14 1
     6     2    15 1
     7     3     4 1
     8     3    16 1
     9     3    17 1
    10     4     5 ar
    11     4     9 ar
    12     5     6 ar
    13     5    18 1
    14     6     7 ar
    15     6    19 1
    16     7     8 ar
    17     7    20 1
    18     8     9 ar
    19     8    21 1
    20     9    22 1
    21    10    23 1
    22    10    24 1
    23    10    25 1
    24    11    12 1
    25    11    26 1
    26    11    27 1
    27    12    13 1
    28    12    28 1
    29    29     2 1
@<TRIPOS>SUBSTRUCTURE
     1 MBH         1 TEMP              0 ****  ****    0 ROOT
