@<TRIPOS>MOLECULE
molecule
   36    37     1     0     0
SMALL
bcc


@<TRIPOS>ATOM
      1 N2           0.0000     0.0000     0.0000 nv         1 MBL      -1.032500
      2 C8           1.3850     0.0000     0.0000 cc         1 MBL       0.664400
      3 N            2.1770     0.0000     1.1060 na         1 MBL      -0.209900
      4 C9           1.7240    -0.0020     2.4980 c3         1 MBL       0.046300
      5 C10          1.3280     1.4190     2.9070 c3         1 MBL      -0.103400
      6 C11          0.8530     1.4170     4.3620 c3         1 MBL      -0.082400
      7 C12          0.4580     2.8380     4.7700 c3         1 MBL      -0.082400
      8 C13         -0.0160     2.8370     6.2250 c3         1 MBL      -0.092100
      9 C7           3.4820     0.0000     0.6750 cc         1 MBL      -0.261600
     10 N1           2.1470    -0.0040    -1.0660 nd         1 MBL      -0.720000
     11 C6           3.4480     0.0020    -0.6810 cd         1 MBL       0.378800
     12 C3           4.6260     0.0020    -1.5830 ca         1 MBL      -0.096500
     13 C1           5.9140    -0.0030    -1.0520 ca         1 MBL      -0.115000
     14 C5           4.4480     0.0030    -2.9650 ca         1 MBL      -0.115000
     15 C4           5.5470     0.0040    -3.8000 ca         1 MBL      -0.131000
     16 C2           6.8230     0.0030    -3.2670 ca         1 MBL      -0.133000
     17 C            7.0050    -0.0030    -1.8960 ca         1 MBL      -0.131000
     18 H1          -0.5000    -0.6740     0.5460 hn         1 MBL       0.441800
     19 H2          -0.5000     0.6350    -0.5910 hn         1 MBL       0.441800
     20 H3           0.8680    -0.6590     2.5990 h1         1 MBL       0.057700
     21 H4           2.5250    -0.3510     3.1390 h1         1 MBL       0.057700
     22 H5           0.5270     1.7690     2.2670 hc         1 MBL       0.057200
     23 H6           2.1830     2.0750     2.8070 hc         1 MBL       0.057200
     24 H7           1.6530     1.0670     5.0020 hc         1 MBL       0.041200
     25 H8          -0.0030     0.7620     4.4620 hc         1 MBL       0.041200
     26 H9           1.3150     3.4940     4.6700 hc         1 MBL       0.043200
     27 H10         -0.3420     3.1890     4.1300 hc         1 MBL       0.043200
     28 H11         -0.2960     3.8420     6.5150 hc         1 MBL       0.034033
     29 H12         -0.8720     2.1810     6.3250 hc         1 MBL       0.034033
     30 H13          0.7840     2.4860     6.8660 hc         1 MBL       0.034033
     31 H14          4.3680     0.0020     1.2990 h4         1 MBL       0.175000
     32 H15          6.0580    -0.0080     0.0220 ha         1 MBL       0.137500
     33 H16          3.4490     0.0040    -3.3840 ha         1 MBL       0.137500
     34 H17          5.4090     0.0070    -4.8740 ha         1 MBL       0.127000
     35 H18          7.6830     0.0040    -3.9260 ha         1 MBL       0.125000
     36 H19          8.0070    -0.0050    -1.4840 ha         1 MBL       0.127000
@<TRIPOS>BOND
     1    17    13 ar
     2    17    16 ar
     3    13    12 ar
     4    16    15 ar
     5     9    11 2
     6     9     3 1
     7    12    11 1
     8    12    14 ar
     9     6     7 1
    10     6     5 1
    11     8     7 1
    12    15    14 ar
    13     4     3 1
    14     4     5 1
    15    11    10 1
    16     3     2 1
    17    10     2 2
    18     2     1 1
    19     1    18 1
    20     1    19 1
    21     4    20 1
    22     4    21 1
    23     5    22 1
    24     5    23 1
    25     6    24 1
    26     6    25 1
    27     7    26 1
    28     7    27 1
    29     8    28 1
    30     8    29 1
    31     8    30 1
    32     9    31 1
    33    13    32 1
    34    14    33 1
    35    15    34 1
    36    16    35 1
    37    17    36 1
@<TRIPOS>SUBSTRUCTURE
     1 MBL         1 TEMP              0 ****  ****    0 ROOT
