@<TRIPOS>MOLECULE
MBL
   36    37     1     0     0
SMALL
bcc


@<TRIPOS>ATOM
      1 N2           0.0000     0.0000     0.0000 nv         1 MBL      -0.569500
      2 C8           1.3850     0.0000     0.0000 cc         1 MBL       0.332400
      3 N            2.1770     0.0000     1.1060 na         1 MBL       0.260100
      4 C9           1.7240    -0.0020     2.4980 c3         1 MBL      -0.038700
      5 C10          1.3280     1.4190     2.9070 c3         1 MBL      -0.048400
      6 C11          0.8530     1.4170     4.3620 c3         1 MBL      -0.025400
      7 C12          0.4580     2.8380     4.7700 c3         1 MBL      -0.027400
      8 C13         -0.0160     2.8370     6.2250 c3         1 MBL       0.006900
      9 C7           3.4820     0.0000     0.6750 cc         1 MBL      -0.421600
     10 N1           2.1470    -0.0040    -1.0660 nd         1 MBL      -0.645000
     11 C6           3.4480     0.0020    -0.6810 cd         1 MBL       0.369800
     12 C3           4.6260     0.0020    -1.5830 ca         1 MBL      -0.095500
     13 C1           5.9140    -0.0030    -1.0520 ca         1 MBL      -0.093000
     14 C5           4.4480     0.0030    -2.9650 ca         1 MBL      -0.093000
     15 C4           5.5470     0.0040    -3.8000 ca         1 MBL      -0.104500
     16 C2           6.8230     0.0030    -3.2670 ca         1 MBL      -0.108000
     17 C            7.0050    -0.0030    -1.8960 ca         1 MBL      -0.104500
     18 H1          -0.5000    -0.6740     0.5460 hn         1 MBL       0.270800
     19 H2          -0.5000     0.6350    -0.5910 hn         1 MBL       0.270800
     20 H3           0.8680    -0.6590     2.5990 h1         1 MBL       0.032200
     21 H4           2.5250    -0.3510     3.1390 h1         1 MBL       0.032200
     22 H5           0.5270     1.7690     2.2670 hc         1 MBL       0.027700
     23 H6           2.1830     2.0750     2.8070 hc         1 MBL       0.027700
     24 H7           1.6530     1.0670     5.0020 hc         1 MBL       0.015200
     25 H8          -0.0030     0.7620     4.4620 hc         1 MBL       0.015200
     26 H9           1.3150     3.4940     4.6700 hc         1 MBL       0.014700
     27 H10         -0.3420     3.1890     4.1300 hc         1 MBL       0.014700
     28 H11         -0.2960     3.8420     6.5150 hc         1 MBL       0.001700
     29 H12         -0.8720     2.1810     6.3250 hc         1 MBL       0.001700
     30 H13          0.7840     2.4860     6.8660 hc         1 MBL       0.001700
     31 H14          4.3680     0.0020     1.2990 h4         1 MBL       0.156000
     32 H15          6.0580    -0.0080     0.0220 ha         1 MBL       0.112500
     33 H16          3.4490     0.0040    -3.3840 ha         1 MBL       0.112500
     34 H17          5.4090     0.0070    -4.8740 ha         1 MBL       0.100000
     35 H18          7.6830     0.0040    -3.9260 ha         1 MBL       0.099000
     36 H19          8.0070    -0.0050    -1.4840 ha         1 MBL       0.100000
@<TRIPOS>BOND
     1     1     2 1   
     2     1    18 1   
     3     1    19 1   
     4     2     3 1   
     5     2    10 2   
     6     3     4 1   
     7     3     9 1   
     8     4     5 1   
     9     4    20 1   
    10     4    21 1   
    11     5     6 1   
    12     5    22 1   
    13     5    23 1   
    14     6     7 1   
    15     6    24 1   
    16     6    25 1   
    17     7     8 1   
    18     7    26 1   
    19     7    27 1   
    20     8    28 1   
    21     8    29 1   
    22     8    30 1   
    23     9    11 2   
    24     9    31 1   
    25    10    11 1   
    26    11    12 1   
    27    12    13 ar  
    28    12    14 ar  
    29    13    17 ar  
    30    13    32 1   
    31    14    15 ar  
    32    14    33 1   
    33    15    16 ar  
    34    15    34 1   
    35    16    17 ar  
    36    16    35 1   
    37    17    36 1   
@<TRIPOS>SUBSTRUCTURE
     1 MBL         1 TEMP              0 ****  ****    0 ROOT
