@<TRIPOS>MOLECULE
MBM
   70    66     1     0     0
SMALL
bcc


@<TRIPOS>ATOM
      1 C          -1.7340   -0.2540    1.4800 c2        1 MBM     -0.451000
      2 N           1.5420   -1.1870    7.0110 n2        1 MBM     -0.201000
      3 O           3.1960   -0.7500    3.3800 o         1 MBM     -0.364000
      4 C1         -2.9240    0.0790    0.9820 c1        1 MBM      0.288000
      5 N1         -1.3860   -1.4380    2.1330 n2        1 MBM     -0.068000
      6 O1          3.1840   -0.7690   12.3250 os        1 MBM     -0.046000
      7 C2          1.4570   -0.4640    1.1210 c2        1 MBM     -0.106000
      8 N2          1.3190   -0.7220    4.7280 n         1 MBM     -0.315000
      9 O2          6.6730    3.3740    8.3710 o         1 MBM     -0.420000
     10 C3          1.9740   -0.5180    5.9710 c2        1 MBM      0.252000
     11 N3          3.0900    0.4240    5.9950 n3        1 MBM     -0.169000
     12 N4          7.2210    5.5390    7.8590 n         1 MBM     -0.318000
     13 C5         -0.1810   -1.7150    2.4870 c2        1 MBM     -0.068000
     14 N5          5.1560    2.5620    4.3240 n         1 MBM     -0.172000
     15 C6          1.0670   -0.9600    2.3020 c2        1 MBM     -0.179000
     16 C7          3.3420    0.6090   12.4070 c2        1 MBM      0.048000
     17 C8          3.0410    1.2300   11.1940 c2        1 MBM     -0.223000
     18 C9          3.7830    1.1380   13.7010 c3        1 MBM     -0.178000
     19 C10         2.0150   -1.0400    8.3210 c2        1 MBM     -0.018000
     20 C11         2.2750    0.1650    8.9270 c2        1 MBM     -0.161000
     21 C12         2.6730    0.1810   10.2950 c2        1 MBM      0.002000
     22 C13         2.1140   -2.3380    9.0930 c3        1 MBM     -0.170000
     23 C14         2.5270   -2.3130   10.4960 c1        1 MBM     -0.043000
     24 C15         2.7740   -1.0380   11.0130 c2        1 MBM     -0.130000
     25 C16         7.7150    5.7970    9.2040 c3        1 MBM     -0.126000
     26 C17         6.1870    3.3660    4.4470 c1        1 MBM     -0.145000
     27 C18         6.7100    4.2910    7.5250 c2        1 MBM      0.247000
     28 C19         7.2980    6.5880    6.9330 c2        1 MBM     -0.037000
     29 C20         6.9680    6.6380   10.1160 c1        1 MBM     -0.081000
     30 C21         7.0370    6.5380    5.6180 c2        1 MBM     -0.289000
     31 C22         6.1090    0.2850    7.5660 c1        1 MBM     -0.237500
     32 C23         4.1280    2.5460    5.3310 c2        1 MBM      0.285000
     33 C24         3.1000    1.4750    5.2230 c1        1 MBM     -0.092000
     34 C25         4.9480    1.6090    3.2240 c3        1 MBM     -0.208000
     35 C26         6.0050   -0.7910    7.0510 c1        1 MBM     -0.237500
     36 C27         5.7990    1.8410    2.0700 c1        1 MBM     -0.052000
     37 H          -0.9620    0.5510    1.3520 h4        1 MBM      0.175000
     38 H1          2.4180    0.0590    1.0020 ha        1 MBM      0.138500
     39 H2          0.8490   -0.5690    0.2120 ha        1 MBM      0.138500
     40 HN2         0.3350   -0.8930    4.7760 hn        1 MBM      0.270000
     41 HN3         3.8020    0.1980    6.6780 hn        1 MBM      0.233000
     42 H5         -0.0600   -2.6930    3.0050 h4        1 MBM      0.170000
     43 H8          3.0910    2.2920   10.9680 ha        1 MBM      0.178000
     44 H9          3.8770    0.3190   14.4570 hc        1 MBM      0.111333
     45 H9A         3.0450    1.8930   14.0730 hc        1 MBM      0.111333
     46 H9B         4.7780    1.6380   13.5840 hc        1 MBM      0.111333
     47 H11         2.1650    1.1350    8.4180 ha        1 MBM      0.151000
     48 H13         1.1040   -2.8510    9.0760 hc        1 MBM      0.165000
     49 H14         2.8270   -3.0370    8.5620 hc        1 MBM      0.165000
     50 H16         8.7710    6.2020    9.1390 h1        1 MBM      0.162000
     51 H16A        7.7900    4.7970    9.7540 h1        1 MBM      0.162000
     52 H17         6.3360    4.1670    6.4710 h5        1 MBM      0.214000
     53 H17A        6.9500    3.3310    3.6430 ha        1 MBM      0.095000
     54 H19         7.6220    7.5420    7.4010 h4        1 MBM      0.125000
     55 H19A        7.1340    7.4450    5.0080 ha        1 MBM      0.135000
     56 H20         7.6360    8.7020    9.3030 ha        1 MBM      0.004167
     57 H20A        6.7180    5.6360    5.0770 ha        1 MBM      0.135000
     58 H21         5.9640    6.9830    9.8310 ha        1 MBM      0.057000
     59 H21A        7.8750    8.7040    9.9410 ha        1 MBM      0.004167
     60 H22         3.9570    2.4970    8.7620 ha        1 MBM      0.004167
     61 H22A        4.3870    2.9350    8.4740 ha        1 MBM      0.004167
     62 H24         6.2150    1.2490    8.0220 ha        1 MBM      0.239500
     63 H25         5.1350    0.5550    3.6160 h1        1 MBM      0.156000
     64 H25A        3.8510    1.6300    2.9200 h1        1 MBM      0.156000
     65 H26         5.6290    1.1570    1.2260 ha        1 MBM      0.061000
     66 H26A        5.3780   -1.7640    3.7180 ha        1 MBM      0.004167
     67 H27         5.4070   -1.5670    4.3660 ha        1 MBM      0.004167
     68 H27A        5.9370   -1.7500    6.6030 ha        1 MBM      0.239500
     69 C4          1.9570   -0.8030    3.4950 c2        1 MBM      0.378000
     70 O3          4.0030    3.4610    6.1550 o         1 MBM     -0.272000
@<TRIPOS>BOND
     1    1    4 1
     2    1    5 1
     3    1   37 1
     4    2   10 1
     5    2   19 1
     6    3   69 1
     7    5   13 1
     8    6   16 1
     9    6   24 1
    10    7   15 1
    11    7   38 1
    12    7   39 1
    13    8   10 1
    14    8   40 1
    15    8   69 1
    16    9   27 1
    17   10   11 1
    18   11   33 1
    19   11   41 1
    20   12   25 1
    21   12   27 1
    22   12   28 1
    23   13   15 1
    24   13   42 1
    25   14   26 1
    26   14   32 1
    27   14   34 1
    28   15   69 1
    29   16   17 1
    30   16   18 1
    31   17   21 1
    32   17   43 1
    33   18   44 1
    34   18   45 1
    35   18   46 1
    36   19   20 1
    37   19   22 1
    38   20   21 1
    39   20   47 1
    40   21   24 1
    41   22   23 1
    42   22   48 1
    43   22   49 1
    44   23   24 1
    45   25   29 1
    46   25   50 1
    47   25   51 1
    48   26   53 1
    49   27   52 1
    50   28   30 1
    51   28   54 1
    52   29   58 1
    53   30   55 1
    54   30   57 1
    55   31   35 1
    56   31   62 1
    57   32   33 1
    58   32   70 1
    59   34   36 1
    60   34   63 1
    61   34   64 1
    62   35   68 1
    63   36   65 1
    64   56   59 1
    65   60   61 1
    66   66   67 1
@<TRIPOS>SUBSTRUCTURE
     1 MBM         1 TEMP              0 ****  ****    0 ROOT
