@<TRIPOS>MOLECULE
MBN
   15    15     1     0     0
SMALL
bcc


@<TRIPOS>ATOM
      1 C           0.0070    0.0010   -0.0000 c3        1 MBN     -0.053800
      2 C1          1.4880    0.0090   -0.0000 ca        1 MBN     -0.077300
      3 C2          2.1960    0.0070    1.2080 ca        1 MBN     -0.131000
      4 C3          3.5900   -0.0010    1.2070 ca        1 MBN     -0.127000
      5 C4          4.2890   -0.0060    0.0000 ca        1 MBN     -0.135000
      6 C5          3.5900   -0.0030   -1.2060 ca        1 MBN     -0.127000
      7 C6          2.1960    0.0040   -1.2080 ca        1 MBN     -0.131000
      8 H1         -0.3960    0.5170    0.9050 hc        1 MBN      0.044033
      9 H2A        -0.3960    0.5120   -0.9080 hc        1 MBN      0.044033
     10 H3A        -0.3680   -1.0540    0.0020 hc        1 MBN      0.044033
     11 H2          1.6470    0.0120    2.1610 ha        1 MBN      0.130000
     12 H3          4.1380   -0.0020    2.1600 ha        1 MBN      0.130000
     13 H4          5.3890   -0.0110    0.0010 ha        1 MBN      0.130000
     14 H5          4.1390   -0.0060   -2.1600 ha        1 MBN      0.130000
     15 H6          1.6480    0.0080   -2.1610 ha        1 MBN      0.130000
@<TRIPOS>BOND
     1    1    2 1   
     2    1    8 1   
     3    1    9 1   
     4    1   10 1   
     5    2    3 ar  
     6    2    7 ar  
     7    3    4 ar  
     8    3   11 1   
     9    4    5 ar  
    10    4   12 1   
    11    5    6 ar  
    12    5   13 1   
    13    6    7 ar  
    14    6   14 1   
    15    7   15 1   
@<TRIPOS>SUBSTRUCTURE
     1 MBN         1 TEMP              0 ****  ****    0 ROOT
