@<TRIPOS>MOLECULE
molecule
   15    15     1     0     0
SMALL
bcc


@<TRIPOS>ATOM
      1 C            0.0000     0.0000     0.0000 c3         1 MBN      -0.047800
      2 C1           1.5070     0.0000     0.0000 ca         1 MBN      -0.082300
      3 C2           2.1980     0.0000     1.1970 ca         1 MBN      -0.128500
      4 C3           3.5790     0.0000     1.1970 ca         1 MBN      -0.125000
      5 C4           4.2700    -0.0010     0.0000 ca         1 MBN      -0.134000
      6 C5           3.5790    -0.0010    -1.1970 ca         1 MBN      -0.125000
      7 C6           2.1980    -0.0050    -1.1970 ca         1 MBN      -0.128500
      8 H1          -0.3610    -0.9820     0.2800 hc         1 MBN       0.042700
      9 H2A         -0.3610     0.2490    -0.9910 hc         1 MBN       0.042700
     10 H3A         -0.3610     0.7330     0.7110 hc         1 MBN       0.042700
     11 H2           1.6560     0.0010     2.1350 ha         1 MBN       0.129000
     12 H3           4.1210     0.0000     2.1350 ha         1 MBN       0.128000
     13 H4           5.3530     0.0010     0.0000 ha         1 MBN       0.128000
     14 H5           4.1210    -0.0030    -2.1350 ha         1 MBN       0.128000
     15 H6           1.6560    -0.0050    -2.1350 ha         1 MBN       0.129000
@<TRIPOS>BOND
     1     1     2 1
     2     1     8 1
     3     1     9 1
     4     1    10 1
     5     2     3 ar
     6     2     7 ar
     7     3     4 ar
     8     3    11 1
     9     4     5 ar
    10     4    12 1
    11     5     6 ar
    12     5    13 1
    13     6     7 ar
    14     6    14 1
    15     7    15 1
@<TRIPOS>SUBSTRUCTURE
     1 MBN         1 TEMP              0 ****  ****    0 ROOT
