@<TRIPOS>MOLECULE
molecule
   30    31     1     0     0
SMALL
bcc


@<TRIPOS>ATOM
      1 C2           0.0000     0.0000     0.0000 ca         1 MBP       0.974900
      2 C4           1.9990     0.0000     1.1510 ca         1 MBP       0.680300
      3 C5           1.2800     0.0060     2.3580 ca         1 MBP      -0.411800
      4 C4'         -3.0910     0.0030     4.2860 c          1 MBP       0.557100
      5 O4'         -2.5870     0.0040     5.3840 o          1 MBP      -0.501100
      6 C3'         -5.2160    -0.7170     5.3420 c3         1 MBP      -0.080600
      7 C2'         -4.5910     0.0040     4.1460 c3         1 MBP      -0.167700
      8 C12         -5.0990     1.4450     4.0970 c3         1 MBP      -0.080600
      9 N9           3.3060    -0.0000     1.4760 nc         1 MBP      -0.688700
     10 N3           1.3220     0.0000     0.0000 nb         1 MBP      -0.788000
     11 N2          -0.6690    -0.0010    -1.2130 nv         1 MBP      -0.992500
     12 N1          -0.7090     0.0010     1.1210 nb         1 MBP      -0.876000
     13 C6          -0.1130     0.0010     2.3080 ca         1 MBP       0.727600
     14 O6          -0.8450     0.0030     3.4480 os         1 MBP      -0.394100
     15 C60         -2.2180     0.0020     3.0580 c3         1 MBP       0.031400
     16 N7           2.2240     0.0010     3.3660 na         1 MBP      -0.238300
     17 C8           3.4390     0.0000     2.7720 cd         1 MBP       0.462700
     18 H3'1        -5.0310    -0.1470     6.2440 hc         1 MBP       0.044033
     19 H3'2        -6.2850    -0.8130     5.1880 hc         1 MBP       0.044033
     20 H3'3        -4.7770    -1.7020     5.4400 hc         1 MBP       0.044033
     21 H2'         -4.8680    -0.5080     3.2320 hc         1 MBP       0.061700
     22 H121        -6.1790     1.4500     4.1800 hc         1 MBP       0.044033
     23 H122        -4.6710     2.0070     4.9180 hc         1 MBP       0.044033
     24 H123        -4.8070     1.8990     3.1580 hc         1 MBP       0.044033
     25 H2N1        -0.1510    -0.0050    -2.0700 hn         1 MBP       0.450800
     26 H2N2        -1.6690     0.0040    -1.2330 hn         1 MBP       0.450800
     27 H601        -2.4250    -0.8820     2.4690 h1         1 MBP       0.080200
     28 H602        -2.4260     0.8870     2.4680 h1         1 MBP       0.080200
     29 H7           2.0430     0.0020     4.3500 hn         1 MBP       0.314700
     30 H8           4.3860     0.0000     3.2980 h5         1 MBP       0.079800
@<TRIPOS>BOND
     1     1    10 ar
     2     1    11 1
     3     1    12 ar
     4     2     3 ar
     5     2     9 1
     6     2    10 ar
     7     3    13 ar
     8     3    16 1
     9     4     5 2
    10     4     7 1
    11     4    15 1
    12     6     7 1
    13     6    18 1
    14     6    19 1
    15     6    20 1
    16     7     8 1
    17     7    21 1
    18     8    22 1
    19     8    23 1
    20     8    24 1
    21     9    17 2
    22    11    25 1
    23    11    26 1
    24    12    13 ar
    25    13    14 1
    26    14    15 1
    27    15    27 1
    28    15    28 1
    29    16    17 1
    30    16    29 1
    31    17    30 1
@<TRIPOS>SUBSTRUCTURE
     1 MBP         1 TEMP              0 ****  ****    0 ROOT
