@<TRIPOS>MOLECULE
molecule
    5     4     1     0     0
SMALL
bcc


@<TRIPOS>ATOM
      1 C1           0.0000     0.0000     0.0000 c3         1 MBR       0.117500
      2 Br2          1.9660     0.0000     0.0000 br         1 MBR      -0.082733
      3 Br1         -0.6550     0.0000     1.8530 br         1 MBR      -0.082733
      4 Br3         -0.6550     1.6040    -0.9270 br         1 MBR      -0.082733
      5 H1          -0.3610    -0.8850    -0.5100 h3         1 MBR       0.130700
@<TRIPOS>BOND
     1     1     2 1
     2     1     3 1
     3     1     4 1
     4     1     5 1
@<TRIPOS>SUBSTRUCTURE
     1 MBR         1 TEMP              0 ****  ****    0 ROOT
