@<TRIPOS>MOLECULE
MBR
    5     4     1     0     0
SMALL
bcc


@<TRIPOS>ATOM
      1 C1          0.0210    0.0510    0.0290 c3        1 MBR      0.055500
      2 BR2         1.9250   -0.0260   -0.0060 br        1 MBR     -0.062400
      3 BR1        -0.6550   -0.0170    1.8110 br        1 MBR     -0.062400
      4 BR3        -0.6420    1.5660   -0.9200 br        1 MBR     -0.062400
      5 H1         -0.3540   -0.8550   -0.4980 h3        1 MBR      0.132700
@<TRIPOS>BOND
     1    1    2 1   
     2    1    3 1   
     3    1    4 1   
     4    1    5 1   
@<TRIPOS>SUBSTRUCTURE
     1 MBR         1 TEMP              0 ****  ****    0 ROOT
