@<TRIPOS>MOLECULE
MBS
   48    49     1     0     0
SMALL
bcc


@<TRIPOS>ATOM
      1 C5           0.0000     0.0000     0.0000 c3         1 MBS       0.240700
      2 O6           1.4290     0.0000     0.0000 os         1 MBS      -0.406600
      3 C16          1.8430     0.0000     1.3680 c3         1 MBS       0.344500
      4 C12          3.3070     0.1170     1.4380 c1         1 MBS      -0.243100
      5 C4           4.4770     0.1930     1.5050 c1         1 MBS      -0.020100
      6 C3           5.5900     0.5850     1.8400 c3         1 MBS       0.023700
      7 C2           6.5880    -0.2480     2.7810 c3         1 MBS      -0.175500
      8 C1           5.6140    -0.1720     4.2410 c          1 MBS       1.173600
      9 O2           5.5480     0.7810     4.6580 o          1 MBS      -0.761300
     10 O1           5.0100    -1.0310     4.4250 o          1 MBS      -0.761300
     11 N1           7.7190     0.1590     3.0790 n7         1 MBS      -0.207100
     12 S11          9.0400    -0.8280     3.3780 sy         1 MBS       0.469200
     13 O3           8.6890    -1.7000     4.8810 o          1 MBS      -0.518300
     14 O4          10.2230    -0.2280     3.7230 o          1 MBS      -0.518300
     15 C21          9.1580    -2.1330     2.1830 ca         1 MBS      -0.001500
     16 C22          9.6040    -3.5080     2.2380 ca         1 MBS      -0.036000
     17 C23         10.1140    -4.1060     1.1590 ca         1 MBS      -0.101000
     18 C24          9.7320    -3.9950    -0.1900 cp         1 MBS      -0.038000
     19 C25          9.3470    -2.2770    -0.3640 ca         1 MBS      -0.101000
     20 C26          9.3420    -1.6640     0.9890 ca         1 MBS      -0.036000
     21 C6          10.4020    -4.6970    -1.0650 cp         1 MBS       0.003000
     22 C32         11.4500    -5.5490    -0.8680 ca         1 MBS      -0.105500
     23 C33         11.7830    -6.0060    -1.9980 ca         1 MBS      -0.112500
     24 C34         11.4900    -5.9830    -3.4270 ca         1 MBS       0.077100
     25 C35         10.3800    -5.0400    -3.3780 ca         1 MBS      -0.112500
     26 C36         10.0080    -4.5710    -2.3880 ca         1 MBS      -0.105500
     27 O5          12.4610    -6.5270    -4.1150 os         1 MBS      -0.258900
     28 C7          13.3180    -5.5840    -4.6300 c3         1 MBS       0.235700
     29 H51         -0.3610     0.8220     0.6060 h1         1 MBS      -0.018633
     30 H52         -0.3610     0.1140    -1.0150 h1         1 MBS      -0.018633
     31 H53         -0.3610    -0.9360     0.4090 h1         1 MBS      -0.018633
     32 H161         1.3490    -0.8080     1.8950 h1         1 MBS      -0.004300
     33 H162         1.5770     0.9450     1.8260 h1         1 MBS      -0.004300
     34 H31          6.1320     0.7800     0.9230 hc         1 MBS       0.019200
     35 H32          5.4410     1.5400     2.3280 hc         1 MBS       0.019200
     36 H21          6.6470    -1.2730     2.4350 h1         1 MBS       0.052700
     37 HN1          7.8550     1.1490     3.1450 hn         1 MBS       0.301800
     38 H221         9.5270    -4.0580     3.1690 ha         1 MBS       0.091500
     39 H231        10.9430    -4.7770     1.3500 ha         1 MBS       0.102000
     40 H251         9.8470    -1.6840    -1.1200 ha         1 MBS       0.102000
     41 H261         9.2110    -0.5890     0.9750 ha         1 MBS       0.091500
     42 H321        11.5450    -6.0830     0.0690 ha         1 MBS       0.116500
     43 H331        12.6070    -6.6920    -1.8440 ha         1 MBS       0.069000
     44 H351         9.9840    -4.6220    -4.2950 ha         1 MBS       0.069000
     45 H361         9.1180    -3.9690    -2.5280 ha         1 MBS       0.116500
     46 H71         13.6140    -4.8980    -3.8460 h1         1 MBS      -0.010633
     47 H72         14.1960    -6.0750    -5.0310 h1         1 MBS      -0.010633
     48 H73         12.8190    -5.0360    -5.4210 h1         1 MBS      -0.010633
@<TRIPOS>BOND
     1     1     2 1   
     2     1    29 1   
     3     1    30 1   
     4     1    31 1   
     5     2     3 1   
     6     3     4 1   
     7     3    32 1   
     8     3    33 1   
     9     4     5 3   
    10     5     6 1   
    11     6     7 1   
    12     6    34 1   
    13     6    35 1   
    14     7     8 1   
    15     7    11 1   
    16     7    36 1   
    17     8     9 1   
    18     8    10 1   
    19    11    12 1   
    20    11    37 1   
    21    12    13 2   
    22    12    14 2   
    23    12    15 1   
    24    15    16 ar  
    25    15    20 ar  
    26    16    17 ar  
    27    16    38 1   
    28    17    18 ar  
    29    17    39 1   
    30    18    19 ar  
    31    18    21 1   
    32    19    20 ar  
    33    19    40 1   
    34    20    41 1   
    35    21    22 ar  
    36    21    26 ar  
    37    22    23 ar  
    38    22    42 1   
    39    23    24 ar  
    40    23    43 1   
    41    24    25 ar  
    42    24    27 1   
    43    25    26 ar  
    44    25    44 1   
    45    26    45 1   
    46    27    28 1   
    47    28    46 1   
    48    28    47 1   
    49    28    48 1   
@<TRIPOS>SUBSTRUCTURE
     1 MBS         1 TEMP              0 ****  ****    0 ROOT
