@<TRIPOS>MOLECULE
molecule
   38    40     1     0     0
SMALL
bcc


@<TRIPOS>ATOM
      1 C1           0.0000     0.0000     0.0000 ca         1 MBT       0.336100
      2 C2           1.4740     0.0000     0.0000 ca         1 MBT       0.003100
      3 S3           2.2180     0.0000     1.5600 ss         1 MBT       0.028200
      4 C4           1.0380     0.0000     2.8230 cc         1 MBT       0.003100
      5 C5          -0.3670     0.0000     2.3780 cc         1 MBT       0.270800
      6 N6          -0.7040     0.0050     1.1080 nd         1 MBT      -0.592000
      7 C7           1.3680     0.0010     4.1680 cd         1 MBT      -0.215000
      8 C8           0.3480     0.0010     5.1020 cd         1 MBT       0.264700
      9 C9          -0.9940     0.0010     4.6950 cd         1 MBT      -0.204500
     10 C10         -1.3600    -0.0000     3.3920 cc         1 MBT       0.022500
     11 C11          2.1940     0.0010    -1.1830 ca         1 MBT      -0.215000
     12 C12          1.5040     0.0010    -2.3810 ca         1 MBT       0.291600
     13 C13          0.1010     0.0010    -2.3990 ca         1 MBT      -0.204500
     14 C14         -0.6400     0.0000    -1.2670 ca         1 MBT      -0.042800
     15 N15          0.6570     0.0010     6.4590 nh         1 MBT      -0.280600
     16 C16          2.0560     0.0010     6.8920 c3         1 MBT       0.027600
     17 C17         -0.4180     0.0020     7.4550 c3         1 MBT       0.027600
     18 N18          2.2080     0.0010    -3.5820 nh         1 MBT      -0.662500
     19 C19          3.6720     0.0020    -3.5720 c3         1 MBT       0.205100
     20 C20          1.4830     0.0020    -4.8550 c3         1 MBT       0.205100
     21 H191         4.0310    -0.8820    -3.0590 h1         1 MBT       0.060033
     22 H192         4.0400     0.0020    -4.5910 h1         1 MBT       0.060033
     23 H193         4.0290     0.8870    -3.0590 h1         1 MBT       0.060033
     24 H201         0.8610     0.8870    -4.9160 h1         1 MBT       0.060033
     25 H202         0.8610    -0.8820    -4.9180 h1         1 MBT       0.060033
     26 H203         2.1930     0.0020    -5.6740 h1         1 MBT       0.060033
     27 H13         -0.4080     0.0010    -3.3550 ha         1 MBT       0.163000
     28 H14         -1.7220     0.0000    -1.3270 ha         1 MBT       0.174000
     29 H10         -2.4090     0.0000     3.1240 ha         1 MBT       0.174000
     30 H9          -1.7680     0.0010     5.4530 ha         1 MBT       0.163000
     31 H7           2.4050     0.0010     4.4820 ha         1 MBT       0.167000
     32 H11          3.2770     0.0010    -1.1700 ha         1 MBT       0.167000
     33 H161         2.5520     0.8860     6.5110 h1         1 MBT       0.060033
     34 H162         2.1000     0.0010     7.9740 h1         1 MBT       0.060033
     35 H163         2.5520    -0.8830     6.5100 h1         1 MBT       0.060033
     36 H171        -1.0290     0.8870     7.3250 h1         1 MBT       0.060033
     37 H172         0.0120     0.0020     8.4490 h1         1 MBT       0.060033
     38 H173        -1.0300    -0.8820     7.3260 h1         1 MBT       0.060033
@<TRIPOS>BOND
     1     1    14 ar
     2     1     6 1
     3     1     2 ar
     4     2     3 1
     5     2    11 ar
     6     3     4 1
     7     4     7 2
     8     4     5 1
     9     5     6 2
    10     5    10 1
    11     7     8 1
    12     7    31 1
    13     8     9 1
    14     8    15 2
    15     9    10 2
    16     9    30 1
    17    10    29 1
    18    11    12 ar
    19    11    32 1
    20    12    18 1
    21    12    13 ar
    22    13    14 ar
    23    13    27 1
    24    14    28 1
    25    15    16 1
    26    15    17 1
    27    16    33 1
    28    16    34 1
    29    16    35 1
    30    17    36 1
    31    17    37 1
    32    17    38 1
    33    18    19 1
    34    18    20 1
    35    19    21 1
    36    19    22 1
    37    19    23 1
    38    20    24 1
    39    20    25 1
    40    20    26 1
@<TRIPOS>SUBSTRUCTURE
     1 MBT         1 TEMP              0 ****  ****    0 ROOT
