@<TRIPOS>MOLECULE
molecule
   79    82     1     0     0
SMALL
bcc


@<TRIPOS>ATOM
      1 O1           0.0000     0.0000     0.0000 o          1 MBV      -0.639500
      2 C1           1.2700     0.0000     0.0000 c          1 MBV       0.690700
      3 N1           2.1280     0.0000     1.1740 ns         1 MBV      -0.524100
      4 C4           3.5110    -0.1170     0.7100 cc         1 MBV       0.061600
      5 C2           2.1210    -0.1300    -1.1250 cd         1 MBV      -0.228400
      6 C3           3.5290    -0.2510    -0.6200 cc         1 MBV      -0.027200
      7 C1A          1.7130    -0.0580    -2.5600 c3         1 MBV      -0.011900
      8 C2A          4.7550    -0.4330    -1.4710 c3         1 MBV      -0.042200
      9 C5           4.5870    -0.2740     1.6700 cf         1 MBV      -0.154600
     10 C6           4.5320    -0.2500     3.0020 cd         1 MBV       0.462900
     11 N2           3.3070    -0.0390     3.7790 nc         1 MBV      -0.604300
     12 C9           3.7250    -0.0940     5.1730 cc         1 MBV       0.056600
     13 C7           5.6710    -0.4290     3.9590 cd         1 MBV      -0.157800
     14 C8           5.2050    -0.3390     5.2120 cc         1 MBV      -0.137200
     15 C1B          7.0930    -0.6680     3.5630 c3         1 MBV      -0.031200
     16 C6B          6.0030    -0.4570     6.4750 c3         1 MBV      -0.027900
     17 C10          2.9340     0.0480     6.2440 cf         1 MBV       0.009800
     18 C11          1.4660     0.2280     6.1840 cd         1 MBV      -0.055100
     19 N3           0.5620     0.1280     5.0440 na         1 MBV      -0.292100
     20 C14         -0.7760     0.4000     5.5610 cd         1 MBV       0.077900
     21 C12          0.7480     0.5260     7.2690 cc         1 MBV      -0.143300
     22 C13         -0.6960     0.6380     6.8680 cc         1 MBV      -0.115300
     23 C6C          1.2870     0.7280     8.6970 c3         1 MBV      -0.017800
     24 C1C         -1.8130     0.9640     7.8110 c3         1 MBV       0.014900
     25 C15         -1.8670     0.3680     4.6420 cf         1 MBV      -0.202200
     26 C16         -2.3640     1.2000     3.7200 cc         1 MBV       0.189600
     27 N4          -1.6870     1.8050     2.7200 ns         1 MBV      -0.468100
     28 C19         -2.5460     2.5800     1.9890 c          1 MBV       0.675700
     29 C17         -3.7740     1.6870     3.5380 cc         1 MBV       0.037800
     30 C18         -3.8870     2.4580     2.5750 cd         1 MBV      -0.229400
     31 C2D         -4.9840     1.3850     4.3130 c3         1 MBV      -0.201200
     32 C1D         -5.0870     3.2470     1.9330 c3         1 MBV      -0.001900
     33 O20         -2.2840     3.2880     0.9870 o          1 MBV      -0.638500
     34 C3A          5.3890     0.8850    -1.8930 c3         1 MBV      -0.082100
     35 C2B          7.1960    -1.8870     2.6600 c3         1 MBV      -0.185400
     36 C3B          7.7770    -1.5460     1.3100 c          1 MBV       0.887600
     37 O4B          8.5020    -0.4240     1.4080 o          1 MBV      -0.850800
     38 O5B          7.7720    -2.2780     0.3450 o          1 MBV      -0.850800
     39 C2C         -2.8110    -0.1840     7.7610 c3         1 MBV      -0.181400
     40 C3C         -4.1950     0.4160     7.7120 c          1 MBV       0.906600
     41 O4C         -4.6030     0.4620     6.4370 o          1 MBV      -0.844800
     42 O5C         -4.6890     1.0850     8.5950 o          1 MBV      -0.844800
     43 C3D         -6.1630     0.5110     3.8960 c3         1 MBV      -0.021100
     44 HN1          1.8310     0.1090     2.1230 hn         1 MBV       0.358500
     45 H1A1         2.0400     0.8850    -2.9810 hc         1 MBV       0.041367
     46 H1A2         2.1680    -0.8750    -3.1060 hc         1 MBV       0.041367
     47 H1A3         0.6350    -0.1310    -2.6330 hc         1 MBV       0.041367
     48 H2A1         4.4820    -0.9880    -2.3600 hc         1 MBV       0.069200
     49 H2A2         5.4840    -1.0070    -0.9120 hc         1 MBV       0.069200
     50 HC5          5.5870    -0.3590     1.2620 ha         1 MBV       0.185000
     51 H1B1         7.6890    -0.8310     4.4530 hc         1 MBV       0.069700
     52 H1B2         7.4680     0.2010     3.0350 hc         1 MBV       0.069700
     53 H6B1         7.0450    -0.2460     6.2660 hc         1 MBV       0.037367
     54 H6B2         5.9100    -1.4630     6.8680 hc         1 MBV       0.037367
     55 H6B3         5.6310     0.2510     7.2050 hc         1 MBV       0.037367
     56 H10          3.3870    -0.0160     7.2260 ha         1 MBV       0.137000
     57 HN3          0.8090    -0.0840     4.0980 hn         1 MBV       0.309700
     58 H6C1         1.6480    -0.2170     9.0840 hc         1 MBV       0.033367
     59 H6C2         0.4920     1.0990     9.3340 hc         1 MBV       0.033367
     60 H6C3         2.0990     1.4450     8.6790 hc         1 MBV       0.033367
     61 H1C1        -1.4250     1.0700     8.8170 hc         1 MBV       0.046200
     62 H1C2        -2.2960     1.8840     7.5050 hc         1 MBV       0.046200
     63 H15         -1.0090     0.0080     4.0880 ha         1 MBV       0.045000
     64 HN4         -0.7080     1.7020     2.5410 hn         1 MBV       0.342500
     65 H2D1        -5.4150     2.3490     4.5580 hc         1 MBV       0.134200
     66 H2D2        -4.6300     0.9620     5.2450 hc         1 MBV       0.134200
     67 H1D1        -5.6680     2.5770     1.3110 hc         1 MBV       0.038367
     68 H1D2        -4.7020     4.0590     1.3270 hc         1 MBV       0.038367
     69 H1D3        -5.7160     3.6490     2.7170 hc         1 MBV       0.038367
     70 H3A1         5.1070     1.6620    -1.1920 hc         1 MBV       0.037367
     71 H3A2         6.4670     0.7810    -1.9020 hc         1 MBV       0.037367
     72 H3A3         5.0430     1.1510    -2.8850 hc         1 MBV       0.037367
     73 H2B1         6.2070    -2.3060     2.5210 hc         1 MBV       0.026200
     74 H2B2         7.8270    -2.6260     3.1380 hc         1 MBV       0.026200
     75 H2C1        -2.7080    -0.8000     8.6460 hc         1 MBV       0.036200
     76 H2C2        -2.6380    -0.7830     6.8740 hc         1 MBV       0.036200
     77 H3D1        -5.8140    -0.4950     3.6980 hc         1 MBV       0.012700
     78 H3D2        -6.8960     0.4890     4.6930 hc         1 MBV       0.012700
     79 H3D3        -6.6160     0.9190     3.0000 hc         1 MBV       0.012700
@<TRIPOS>BOND
     1     1     2 2
     2     2     3 1
     3     2     5 1
     4     3     4 1
     5     3    44 1
     6     4     6 1
     7     4     9 2
     8     5     6 2
     9     5     7 1
    10     6     8 1
    11     7    45 1
    12     7    46 1
    13     7    47 1
    14     8    34 1
    15     8    48 1
    16     8    49 1
    17     9    10 1
    18     9    50 1
    19    10    11 2
    20    10    13 1
    21    11    12 1
    22    12    14 1
    23    12    17 2
    24    13    14 2
    25    13    15 1
    26    14    16 1
    27    15    35 1
    28    15    51 1
    29    15    52 1
    30    16    53 1
    31    16    54 1
    32    16    55 1
    33    17    18 1
    34    17    56 1
    35    18    19 1
    36    18    21 2
    37    19    20 1
    38    19    57 1
    39    20    22 2
    40    20    25 1
    41    21    22 1
    42    21    23 1
    43    22    24 1
    44    23    58 1
    45    23    59 1
    46    23    60 1
    47    24    39 1
    48    24    61 1
    49    24    62 1
    50    25    26 2
    51    25    63 1
    52    26    27 1
    53    26    29 1
    54    27    28 1
    55    27    64 1
    56    28    30 1
    57    28    33 2
    58    29    30 2
    59    29    31 1
    60    30    32 1
    61    31    43 1
    62    31    65 1
    63    31    66 1
    64    32    67 1
    65    32    68 1
    66    32    69 1
    67    34    70 1
    68    34    71 1
    69    34    72 1
    70    35    36 1
    71    35    73 1
    72    35    74 1
    73    36    37 1
    74    36    38 1
    75    39    40 1
    76    39    75 1
    77    39    76 1
    78    40    41 1
    79    40    42 1
    80    43    77 1
    81    43    78 1
    82    43    79 1
@<TRIPOS>SUBSTRUCTURE
     1 MBV         1 TEMP              0 ****  ****    0 ROOT
