@<TRIPOS>MOLECULE
MBV
   79    83     1     0     0
SMALL
bcc


@<TRIPOS>ATOM
      1 O1           0.0000     0.0000     0.0000 o          1 MBV      -0.386000
      2 C1           1.2700     0.0000     0.0000 c2         1 MBV       0.259000
      3 N1           2.1280     0.0000     1.1740 ns         1 MBV       0.019000
      4 C4           3.5110    -0.1170     0.7100 c2         1 MBV      -0.057000
      5 C2           2.1210    -0.1300    -1.1250 c2         1 MBV      -0.222000
      6 C3           3.5290    -0.2510    -0.6200 c2         1 MBV      -0.025000
      7 C1A          1.7130    -0.0580    -2.5600 c3         1 MBV      -0.022000
      8 C2A          4.7550    -0.4330    -1.4710 c3         1 MBV      -0.065000
      9 C5           4.5870    -0.2740     1.6700 c2         1 MBV      -0.057000
     10 C6           4.5320    -0.2500     3.0020 c2         1 MBV       0.021000
     11 N2           3.3070    -0.0390     3.7790 n2         1 MBV      -0.184000
     12 C9           3.7250    -0.0940     5.1730 c2         1 MBV      -0.084000
     13 C7           5.6710    -0.4290     3.9590 c2         1 MBV      -0.070000
     14 C8           5.2050    -0.3390     5.2120 c2         1 MBV      -0.140000
     15 C1B          7.0930    -0.6680     3.5630 c3         1 MBV      -0.072000
     16 C6B          6.0030    -0.4570     6.4750 c3         1 MBV      -0.043000
     17 C10          2.9340     0.0480     6.2440 c2         1 MBV       0.040000
     18 C11          1.4660     0.2280     6.1840 c2         1 MBV      -0.181000
     19 N3           0.5620     0.1280     5.0440 na         1 MBV       0.195000
     20 C14         -0.7760     0.4000     5.5610 c2         1 MBV      -0.058000
     21 C12          0.7480     0.5260     7.2690 c2         1 MBV      -0.142000
     22 C13         -0.6960     0.6380     6.8680 c2         1 MBV      -0.134000
     23 C6C          1.2870     0.7280     8.6970 c3         1 MBV      -0.028000
     24 C1C         -1.8130     0.9640     7.8110 c3         1 MBV      -0.007000
     25 C15         -1.8670     0.3680     4.6420 c2         1 MBV      -0.232000
     26 C16         -2.3640     1.2000     3.7200 c2         1 MBV      -0.017000
     27 N4          -1.6870     1.8050     2.7200 ns         1 MBV       0.138000
     28 C19         -2.5460     2.5800     1.9890 c2         1 MBV       0.233000
     29 C17         -3.7740     1.6870     3.5380 c2         1 MBV       0.055000
     30 C18         -3.8870     2.4580     2.5750 c2         1 MBV      -0.236000
     31 C2D         -4.9840     1.3850     4.3130 c3         1 MBV      -0.324000
     32 C1D         -5.0870     3.2470     1.9330 c3         1 MBV      -0.003000
     33 O20         -2.2840     3.2880     0.9870 o          1 MBV      -0.416000
     34 C3A          5.3890     0.8850    -1.8930 c3         1 MBV      -0.110000
     35 C2B          7.1960    -1.8870     2.6600 c3         1 MBV      -0.169000
     36 C3B          7.7770    -1.5460     1.3100 c2         1 MBV       0.400000
     37 O4B          8.5020    -0.4240     1.4080 o          1 MBV      -0.631500
     38 O5B          7.7720    -2.2780     0.3450 o          1 MBV      -0.631500
     39 C2C         -2.8110    -0.1840     7.7610 c3         1 MBV      -0.184000
     40 C3C         -4.1950     0.4160     7.7120 c2         1 MBV       0.415000
     41 O4C         -4.6030     0.4620     6.4370 oh         1 MBV      -0.693000
     42 O5C         -4.6890     1.0850     8.5950 o          1 MBV      -0.538000
     43 C3D         -6.1630     0.5110     3.8960 c3         1 MBV      -0.029000
     44 HN1          1.8310     0.1090     2.1230 hn         1 MBV       0.136000
     45 H1A1         2.1430     0.8270    -3.0140 hc         1 MBV       0.044333
     46 H1A2         0.6330    -0.0090    -2.6260 hc         1 MBV       0.044333
     47 H1A3         2.0670    -0.9400    -3.0810 hc         1 MBV       0.044333
     48 H2A1         4.4810    -0.9880    -2.3600 hc         1 MBV       0.077000
     49 H2A2         5.4840    -1.0070    -0.9130 hc         1 MBV       0.077000
     50 HC5          5.5870    -0.3590     1.2620 ha         1 MBV       0.159000
     51 H1B1         7.6890    -0.8310     4.4530 hc         1 MBV       0.087000
     52 H1B2         7.4680     0.2010     3.0350 hc         1 MBV       0.087000
     53 H6B1         6.0430     0.5060     6.9690 hc         1 MBV       0.043333
     54 H6B2         7.0080    -0.7830     6.2380 hc         1 MBV       0.043333
     55 H6B3         5.5340    -1.1800     7.1320 hc         1 MBV       0.043333
     56 H10          3.3870    -0.0160     7.2260 ha         1 MBV       0.102000
     57 HN3          0.8090    -0.0840     4.0980 hn         1 MBV       0.103000
     58 H6C1         1.5860    -0.2280     9.1080 hc         1 MBV       0.037000
     59 H6C2         2.1410     1.3930     8.6700 hc         1 MBV       0.037000
     60 H6C3         0.5110     1.1610     9.3180 hc         1 MBV       0.037000
     61 H1C1        -1.4250     1.0700     8.8170 hc         1 MBV       0.058000
     62 H1C2        -2.2960     1.8840     7.5050 hc         1 MBV       0.058000
     63 H15         -2.6700    -0.0360     5.2470 ha         1 MBV       0.169000
     64 HN4         -0.7080     1.7020     2.5410 hn         1 MBV       0.095000
     65 H2D1        -5.4150     2.3490     4.5580 hc         1 MBV       0.060000
     66 H2D2        -4.6300     0.9620     5.2450 DU         1 MBV       0.272000
     67 H1D1        -5.7250     3.6350     2.7170 hc         1 MBV       0.038333
     68 H1D2        -5.6590     2.5810     1.2980 hc         1 MBV       0.038333
     69 H1D3        -4.7030     4.0690     1.3400 hc         1 MBV       0.038333
     70 H3A1         6.4360     0.8870    -1.6160 hc         1 MBV       0.044333
     71 H3A2         5.2990     1.0020    -2.9660 hc         1 MBV       0.044333
     72 H3A3         4.8820     1.7040    -1.3970 hc         1 MBV       0.044333
     73 H2B1         6.2070    -2.3060     2.5210 hc         1 MBV       0.043500
     74 H2B2         7.8280    -2.6250     3.1380 hc         1 MBV       0.043500
     75 H2C1        -2.7080    -0.8000     8.6460 hc         1 MBV       0.055000
     76 H2C2        -2.6380    -0.7830     6.8740 hc         1 MBV       0.055000
     77 H3D1        -6.3800     0.6730     2.8470 hc         1 MBV       0.019333
     78 H3D2        -7.0330     0.7700     4.4880 hc         1 MBV       0.019333
     79 H3D3        -5.9150    -0.5310     4.0560 hc         1 MBV       0.019333
@<TRIPOS>BOND
     1     1     2 1   
     2     2     3 1   
     3     2     5 1   
     4     3     4 1   
     5     3    44 1   
     6     4     6 1   
     7     4     9 1   
     8     5     6 1   
     9     5     7 1   
    10     6     8 1   
    11     7    45 1   
    12     7    46 1   
    13     7    47 1   
    14     8    34 1   
    15     8    48 1   
    16     8    49 1   
    17     9    10 1   
    18     9    50 1   
    19    10    11 1   
    20    10    13 1   
    21    11    12 1   
    22    12    14 1   
    23    12    17 1   
    24    13    14 1   
    25    13    15 1   
    26    14    16 1   
    27    15    35 1   
    28    15    51 1   
    29    15    52 1   
    30    16    53 1   
    31    16    54 1   
    32    16    55 1   
    33    17    18 1   
    34    17    56 1   
    35    18    19 1   
    36    18    21 1   
    37    19    20 1   
    38    19    57 1   
    39    20    22 1   
    40    20    25 1   
    41    21    22 1   
    42    21    23 1   
    43    22    24 1   
    44    23    58 1   
    45    23    59 1   
    46    23    60 1   
    47    24    39 1   
    48    24    61 1   
    49    24    62 1   
    50    25    26 1   
    51    25    63 1   
    52    26    27 1   
    53    26    29 1   
    54    27    28 1   
    55    27    64 1   
    56    28    30 1   
    57    28    33 1   
    58    29    30 1   
    59    29    31 1   
    60    30    32 1   
    61    31    43 1   
    62    31    65 1   
    63    31    66 1   
    64    32    67 1   
    65    32    68 1   
    66    32    69 1   
    67    34    70 1   
    68    34    71 1   
    69    34    72 1   
    70    35    36 1   
    71    35    73 1   
    72    35    74 1   
    73    36    37 1   
    74    36    38 1   
    75    39    40 1   
    76    39    75 1   
    77    39    76 1   
    78    40    41 1   
    79    40    42 1   
    80    41    66 1   
    81    43    77 1   
    82    43    78 1   
    83    43    79 1   
@<TRIPOS>SUBSTRUCTURE
     1 MBV         1 TEMP              0 ****  ****    0 ROOT
