@<TRIPOS>MOLECULE
molecule
   70    73     1     0     0
SMALL
bcc


@<TRIPOS>ATOM
      1 N1          -1.3180     0.0180    -2.2040 n1         1 MBX      -0.357800
      2 C1          -0.7290     0.0020    -1.2330 cg         1 MBX       0.248800
      3 C2           0.0000     0.0000     0.0000 ca         1 MBX      -0.154300
      4 C7           1.4070     0.0000     0.0000 ca         1 MBX       0.592600
      5 N6           2.0750     0.0000     1.1420 nb         1 MBX      -0.755000
      6 C5           1.4540    -0.0030     2.3120 ca         1 MBX       0.647200
      7 N17          2.2010    -0.0080     3.4790 nh         1 MBX      -0.711300
      8 C22          3.5260     0.5890     3.2590 c3         1 MBX       0.134800
      9 C21          4.2930     0.6170     4.5850 c3         1 MBX       0.141600
     10 O20          4.3780    -0.7100     5.1100 os         1 MBX      -0.416600
     11 C19          3.1050    -1.3220     5.3360 c3         1 MBX       0.141600
     12 C18          2.3260    -1.3700     4.0190 c3         1 MBX       0.134800
     13 C4           0.0600    -0.0060     2.3890 ca         1 MBX      -0.249600
     14 C8          -0.6030    -0.0210     3.7410 c3         1 MBX       0.196700
     15 O8          -1.9770     0.3480     3.6200 os         1 MBX      -0.408600
     16 C30         -2.6830    -0.4110     2.6310 c3         1 MBX       0.143800
     17 C6          -2.1820     0.0080     1.2480 c3         1 MBX      -0.064100
     18 C3          -0.6770     0.0040     1.2290 ca         1 MBX       0.026700
     19 S8           2.2840    -0.0000    -1.5290 ss         1 MBX      -0.297400
     20 C9           3.9860    -0.0000    -0.9150 c3         1 MBX       0.004700
     21 C10          4.9550    -0.0010    -2.0990 c3         1 MBX      -0.024100
     22 C11          6.3730    -0.0010    -1.5880 ca         1 MBX      -0.102300
     23 C16          7.0210    -1.1980    -1.3540 ca         1 MBX      -0.105500
     24 C15          8.3210    -1.2020    -0.8850 ca         1 MBX      -0.141500
     25 C14          8.9750     0.0010    -0.6480 ca         1 MBX       0.058600
     26 C13          8.3210     1.2020    -0.8860 ca         1 MBX      -0.141500
     27 C12          7.0240     1.1980    -1.3590 ca         1 MBX      -0.105500
     28 C17          2.3210    -0.5030     6.3630 c3         1 MBX      -0.107100
     29 C24          5.7030     1.1630     4.3470 c3         1 MBX      -0.107100
     30 C25         -2.4170    -1.9030     2.8440 c3         1 MBX      -0.100600
     31 C26         -4.1830    -0.1350     2.7450 c3         1 MBX      -0.100600
     32 N27         10.2910     0.0000    -0.1730 ns         1 MBX      -0.474100
     33 C28         10.6990     0.9610     0.6790 c          1 MBX       0.663300
     34 O30          9.8990     1.7680     1.1140 o          1 MBX      -0.600100
     35 C20         12.1110     1.0330     1.0840 ce         1 MBX      -0.256200
     36 C23         12.5140     1.9810     1.9260 c2         1 MBX      -0.123000
     37 H1           3.4090     1.6010     2.8890 h1         1 MBX       0.058200
     38 H2           4.0740    -0.0050     2.5380 h1         1 MBX       0.058200
     39 H3           3.7690     1.2500     5.2900 h1         1 MBX       0.064200
     40 H4           3.2510    -2.3300     5.7050 h1         1 MBX       0.064200
     41 H5           1.3390    -1.7780     4.1990 h1         1 MBX       0.058200
     42 H6           2.8560    -1.9920     3.3090 h1         1 MBX       0.058200
     43 H7          -0.5360    -1.0170     4.1610 h1         1 MBX       0.066200
     44 H8          -0.1010     0.6840     4.3930 h1         1 MBX       0.066200
     45 H9          -2.5410    -0.7060     0.5170 hc         1 MBX       0.077200
     46 H10         -2.5300     1.0130     1.0420 hc         1 MBX       0.077200
     47 H11          4.1520    -0.8840    -0.3120 h1         1 MBX       0.079700
     48 H12          4.1520     0.8850    -0.3130 h1         1 MBX       0.079700
     49 H13          4.7890     0.8840    -2.7030 hc         1 MBX       0.058200
     50 H14          4.7890    -0.8850    -2.7020 hc         1 MBX       0.058200
     51 H15          6.5100    -2.1350    -1.5380 ha         1 MBX       0.134500
     52 H16          8.8290    -2.1410    -0.7010 ha         1 MBX       0.145500
     53 H17          8.8300     2.1410    -0.7050 ha         1 MBX       0.145500
     54 H18          6.5130     2.1350    -1.5450 ha         1 MBX       0.134500
     55 H19          1.9390     0.3960     5.8930 hc         1 MBX       0.048533
     56 H20          2.9740    -0.2320     7.1840 hc         1 MBX       0.048533
     57 H21          1.4940    -1.0920     6.7400 hc         1 MBX       0.048533
     58 H22          6.2030     1.2990     5.2980 hc         1 MBX       0.048533
     59 H23          6.2640     0.4630     3.7400 hc         1 MBX       0.048533
     60 H24          5.6390     2.1150     3.8330 hc         1 MBX       0.048533
     61 H25         -1.4640    -2.1670     2.4000 hc         1 MBX       0.046700
     62 H26         -2.3920    -2.1180     3.9050 hc         1 MBX       0.046700
     63 H27         -3.2050    -2.4800     2.3760 hc         1 MBX       0.046700
     64 H28         -4.3600     0.9320     2.6830 hc         1 MBX       0.046700
     65 H29         -4.5480    -0.5060     3.6960 hc         1 MBX       0.046700
     66 H30         -4.7050    -0.6350     1.9380 hc         1 MBX       0.046700
     67 H31         10.9360    -0.6970    -0.4880 hn         1 MBX       0.325500
     68 H32         12.8230     0.3140     0.6970 ha         1 MBX       0.127000
     69 H33         13.5540     2.0340     2.2240 ha         1 MBX       0.131500
     70 H34         11.8020     2.7000     2.3130 ha         1 MBX       0.131500
@<TRIPOS>BOND
     1    36    35 2
     2    35    33 1
     3    34    33 2
     4    28    11 1
     5    33    32 1
     6    10    11 1
     7    10     9 1
     8    29     9 1
     9    11    12 1
    10     9     8 1
    11    32    25 1
    12    26    25 ar
    13    26    27 ar
    14    12     7 1
    15    25    24 ar
    16     8     7 1
    17    27    22 ar
    18     7     6 1
    19    24    23 ar
    20    22    23 ar
    21    22    21 1
    22    14    13 1
    23    14    15 1
    24     6    13 ar
    25     6     5 ar
    26    21    20 1
    27    13    18 ar
    28     5     4 ar
    29    15    16 1
    30    20    19 1
    31    31    16 1
    32    16    30 1
    33    16    17 1
    34     4    19 1
    35     4     3 ar
    36    18     3 ar
    37    18    17 1
    38     3     2 1
    39     2     1 3
    40     8    37 1
    41     8    38 1
    42     9    39 1
    43    11    40 1
    44    12    41 1
    45    12    42 1
    46    14    43 1
    47    14    44 1
    48    17    45 1
    49    17    46 1
    50    20    47 1
    51    20    48 1
    52    21    49 1
    53    21    50 1
    54    23    51 1
    55    24    52 1
    56    26    53 1
    57    27    54 1
    58    28    55 1
    59    28    56 1
    60    28    57 1
    61    29    58 1
    62    29    59 1
    63    29    60 1
    64    30    61 1
    65    30    62 1
    66    30    63 1
    67    31    64 1
    68    31    65 1
    69    31    66 1
    70    32    67 1
    71    35    68 1
    72    36    69 1
    73    36    70 1
@<TRIPOS>SUBSTRUCTURE
     1 MBX         1 TEMP              0 ****  ****    0 ROOT
