@<TRIPOS>MOLECULE
MBX
   70    73     1     0     0
SMALL
bcc


@<TRIPOS>ATOM
      1 N1          -1.2910    -0.0040    -2.2200 n1         1 MBX      -0.365800
      2 C1          -0.7290     0.0020    -1.2330 cg         1 MBX       0.239800
      3 C2           0.0000     0.0000     0.0000 ca         1 MBX      -0.083300
      4 C7           1.4070     0.0000     0.0000 ca         1 MBX       0.561600
      5 N6           2.0750     0.0000     1.1420 nb         1 MBX      -0.636000
      6 C5           1.4540    -0.0030     2.3120 ca         1 MBX       0.524200
      7 N17          2.2010    -0.0080     3.4790 nh         1 MBX      -0.487300
      8 C22          3.5260     0.5890     3.2590 c3         1 MBX       0.104300
      9 C21          4.2930     0.6170     4.5850 c3         1 MBX       0.177600
     10 O20          4.3780    -0.7100     5.1100 os         1 MBX      -0.400600
     11 C19          3.1050    -1.3220     5.3360 c3         1 MBX       0.177600
     12 C18          2.3260    -1.3700     4.0190 c3         1 MBX       0.104300
     13 C4           0.0600    -0.0060     2.3890 ca         1 MBX      -0.247600
     14 C8          -0.6030    -0.0210     3.7410 c3         1 MBX       0.270700
     15 O8          -1.9770     0.3480     3.6200 os         1 MBX      -0.393600
     16 C30         -2.6830    -0.4110     2.6310 c3         1 MBX       0.153800
     17 C6          -2.1820     0.0080     1.2480 c3         1 MBX      -0.007100
     18 C3          -0.6770     0.0040     1.2290 ca         1 MBX       0.014700
     19 S8           2.2840    -0.0000    -1.5290 ss         1 MBX      -0.401400
     20 C9           3.9860    -0.0000    -0.9150 c3         1 MBX       0.087700
     21 C10          4.9550    -0.0010    -2.0990 c3         1 MBX       0.049900
     22 C11          6.3730    -0.0010    -1.5880 ca         1 MBX      -0.112300
     23 C16          7.0210    -1.1980    -1.3540 ca         1 MBX      -0.076500
     24 C15          8.3210    -1.2020    -0.8850 ca         1 MBX      -0.114000
     25 C14          8.9750     0.0010    -0.6480 ca         1 MBX      -0.088400
     26 C13          8.3210     1.2020    -0.8860 ca         1 MBX      -0.114000
     27 C12          7.0240     1.1980    -1.3590 ca         1 MBX      -0.076500
     28 C17          2.3210    -0.5030     6.3630 c3         1 MBX      -0.021100
     29 C24          5.7030     1.1630     4.3470 c3         1 MBX      -0.021100
     30 C25         -2.4170    -1.9030     2.8440 c3         1 MBX      -0.017600
     31 C26         -4.1830    -0.1350     2.7450 c3         1 MBX      -0.017600
     32 N27         10.2910     0.0000    -0.1730 ns         1 MBX      -0.029100
     33 C28         10.6990     0.9610     0.6790 c          1 MBX       0.570300
     34 O30          9.8990     1.7680     1.1140 o          1 MBX      -0.641100
     35 C20         12.1110     1.0330     1.0840 ce         1 MBX      -0.250200
     36 C23         12.5140     1.9810     1.9260 c2         1 MBX      -0.049000
     37 H1           3.4090     1.6010     2.8890 h1         1 MBX       0.031950
     38 H2           4.0740    -0.0050     2.5380 h1         1 MBX       0.031950
     39 H3           3.7690     1.2500     5.2900 h1         1 MBX       0.030200
     40 H4           3.2510    -2.3300     5.7050 h1         1 MBX       0.030200
     41 H5           1.3390    -1.7780     4.1990 h1         1 MBX       0.031950
     42 H6           2.8560    -1.9920     3.3090 h1         1 MBX       0.031950
     43 H7          -0.5360    -1.0170     4.1610 h1         1 MBX       0.029700
     44 H8          -0.1010     0.6840     4.3930 h1         1 MBX       0.029700
     45 H9          -2.5300     1.0130     1.0420 hc         1 MBX       0.047200
     46 H10         -2.5410    -0.7060     0.5170 hc         1 MBX       0.047200
     47 H11          4.1520     0.8850    -0.3130 h1         1 MBX       0.052200
     48 H12          4.1520    -0.8840    -0.3120 h1         1 MBX       0.052200
     49 H13          4.7890    -0.8850    -2.7020 hc         1 MBX       0.029700
     50 H14          4.7890     0.8840    -2.7030 hc         1 MBX       0.029700
     51 H15          6.5100    -2.1350    -1.5380 ha         1 MBX       0.108000
     52 H16          8.8290    -2.1410    -0.7010 ha         1 MBX       0.122000
     53 H17          8.8300     2.1410    -0.7050 ha         1 MBX       0.122000
     54 H18          6.5130     2.1350    -1.5450 ha         1 MBX       0.108000
     55 H19          1.9410     0.3970     5.8940 hc         1 MBX       0.015700
     56 H20          1.4930    -1.0920     6.7380 hc         1 MBX       0.015700
     57 H21          2.9740    -0.2330     7.1850 hc         1 MBX       0.015700
     58 H22          5.6390     2.1190     3.8410 hc         1 MBX       0.015700
     59 H23          6.2060     1.2910     5.2980 hc         1 MBX       0.015700
     60 H24          6.2610     0.4670     3.7340 hc         1 MBX       0.015700
     61 H25         -1.4640    -2.1670     2.4000 hc         1 MBX       0.015700
     62 H26         -3.2050    -2.4800     2.3760 hc         1 MBX       0.015700
     63 H27         -2.3920    -2.1180     3.9050 hc         1 MBX       0.015700
     64 H28         -4.7050    -0.6350     1.9380 hc         1 MBX       0.015700
     65 H29         -4.5480    -0.5060     3.6960 hc         1 MBX       0.015700
     66 H30         -4.3600     0.9320     2.6830 hc         1 MBX       0.015700
     67 H31         10.9360    -0.6960    -0.4890 hn         1 MBX       0.167500
     68 H32         12.8230     0.3140     0.6970 ha         1 MBX       0.105000
     69 H33         11.8020     2.7000     2.3130 ha         1 MBX       0.092000
     70 H34         13.5540     2.0340     2.2240 ha         1 MBX       0.092000
@<TRIPOS>BOND
     1     1     2 3   
     2     2     3 1   
     3     3     4 ar  
     4     3    18 ar  
     5     4     5 ar  
     6     4    19 1   
     7     5     6 ar  
     8     6     7 1   
     9     6    13 ar  
    10     7     8 1   
    11     7    12 1   
    12     8     9 1   
    13     8    37 1   
    14     8    38 1   
    15     9    10 1   
    16     9    29 1   
    17     9    39 1   
    18    10    11 1   
    19    11    12 1   
    20    11    28 1   
    21    11    40 1   
    22    12    41 1   
    23    12    42 1   
    24    13    14 1   
    25    13    18 ar  
    26    14    15 1   
    27    14    43 1   
    28    14    44 1   
    29    15    16 1   
    30    16    17 1   
    31    16    30 1   
    32    16    31 1   
    33    17    18 1   
    34    17    45 1   
    35    17    46 1   
    36    19    20 1   
    37    20    21 1   
    38    20    47 1   
    39    20    48 1   
    40    21    22 1   
    41    21    49 1   
    42    21    50 1   
    43    22    23 ar  
    44    22    27 ar  
    45    23    24 ar  
    46    23    51 1   
    47    24    25 ar  
    48    24    52 1   
    49    25    26 ar  
    50    25    32 1   
    51    26    27 ar  
    52    26    53 1   
    53    27    54 1   
    54    28    55 1   
    55    28    56 1   
    56    28    57 1   
    57    29    58 1   
    58    29    59 1   
    59    29    60 1   
    60    30    61 1   
    61    30    62 1   
    62    30    63 1   
    63    31    64 1   
    64    31    65 1   
    65    31    66 1   
    66    32    33 1   
    67    32    67 1   
    68    33    34 2   
    69    33    35 1   
    70    35    36 2   
    71    35    68 1   
    72    36    69 1   
    73    36    70 1   
@<TRIPOS>SUBSTRUCTURE
     1 MBX         1 TEMP              0 ****  ****    0 ROOT
