@<TRIPOS>MOLECULE
molecule
   35    37     1     0     0
SMALL
bcc


@<TRIPOS>ATOM
      1 O6           0.0000     0.0000     0.0000 oh         1 MBY      -0.617300
      2 C6           1.3560     0.0000     0.0000 ca         1 MBY       0.711600
      3 N1           2.0290     0.0000     1.1420 nb         1 MBY      -0.779000
      4 C2           3.3500    -0.0060     1.1480 ca         1 MBY       0.700900
      5 N3           4.0600    -0.0090     0.0470 nb         1 MBY      -0.707000
      6 C4           3.4650    -0.0090    -1.1670 ca         1 MBY       0.514100
      7 C5           2.0670    -0.0040    -1.2080 ca         1 MBY      -0.289700
      8 C9           4.0400    -0.0130    -2.4470 cc         1 MBY      -0.195000
      9 C8           3.1870    -0.0120    -3.4610 cd         1 MBY      -0.070400
     10 S7           1.5300    -0.0120    -2.8810 ss         1 MBY      -0.046500
     11 C7           5.5320    -0.0190    -2.6560 c3         1 MBY       0.209000
     12 N4'          6.0450    -1.3830    -2.4840 n3         1 MBY      -0.661600
     13 C4'          7.5240    -1.3920    -2.4440 c3         1 MBY       0.153500
     14 C5'          8.0730    -0.1910    -3.2160 c3         1 MBY       0.096400
     15 O5'          7.7360    -0.3200    -4.5990 oh         1 MBY      -0.621800
     16 C3'          7.9870    -2.7010    -3.1110 c3         1 MBY       0.141100
     17 O3'          8.6990    -3.5110    -2.1740 oh         1 MBY      -0.574800
     18 C2'          6.6850    -3.4090    -3.5550 c3         1 MBY       0.135100
     19 O2'          6.2780    -4.3740    -2.5830 oh         1 MBY      -0.561800
     20 C1'          5.6670    -2.2450    -3.6330 c3         1 MBY       0.121800
     21 H2           3.8670    -0.0060     2.1000 h5         1 MBY       0.064100
     22 H3           3.4730    -0.0110    -4.5060 h4         1 MBY       0.178000
     23 H4           5.7570     0.3280    -3.6570 h1         1 MBY       0.053200
     24 H5           6.0000     0.6370    -1.9330 h1         1 MBY       0.053200
     25 H7           7.8640    -1.3640    -1.4160 h1         1 MBY       0.105700
     26 H8           9.1510    -0.1540    -3.1080 h1         1 MBY       0.033200
     27 H9           7.6400     0.7210    -2.8220 h1         1 MBY       0.033200
     28 H10          8.2690     0.2680    -5.1080 ho         1 MBY       0.403000
     29 H11          8.6050    -2.4820    -3.9730 h1         1 MBY       0.046700
     30 H12          9.5290    -3.7630    -2.5440 ho         1 MBY       0.393000
     31 H13          6.8140    -3.8670    -4.5280 h1         1 MBY       0.034700
     32 H14          5.9820    -5.1550    -3.0200 ho         1 MBY       0.392000
     33 H15          4.6560    -2.6150    -3.5140 h1         1 MBY       0.055700
     34 H16          5.7760    -1.7050    -4.5660 h1         1 MBY       0.055700
     35 H17         -0.3140     0.8130     0.3590 ho         1 MBY       0.441000
@<TRIPOS>BOND
     1    19    18 1
     2    17    16 1
     3    18    16 1
     4    18    20 1
     5    16    13 1
     6    20    12 1
     7    13    12 1
     8    13    14 1
     9    12    11 1
    10    14    15 1
    11     4     5 ar
    12     4     3 ar
    13     5     6 ar
    14     3     2 ar
    15     6     8 1
    16     6     7 ar
    17    11     8 1
    18     2     7 ar
    19     2     1 1
    20     8     9 2
    21     7    10 1
    22     9    10 1
    23     4    21 1
    24     9    22 1
    25    11    23 1
    26    11    24 1
    27    13    25 1
    28    14    26 1
    29    14    27 1
    30    15    28 1
    31    16    29 1
    32    17    30 1
    33    18    31 1
    34    19    32 1
    35    20    33 1
    36    20    34 1
    37     1    35 1
@<TRIPOS>SUBSTRUCTURE
     1 MBY         1 TEMP              0 ****  ****    0 ROOT
