@<TRIPOS>MOLECULE
MC
   42    44     1     0     0
SMALL
bcc


@<TRIPOS>ATOM
      1 C51          0.0000     0.0000     0.0000 cc         1 MC       -0.308900
      2 C5           1.4720     0.0000     0.0000 c          1 MC        0.625900
      3 C6           2.2080     0.0000     1.2670 cc         1 MC        0.068600
      4 C7           1.5490     0.0120     2.4470 cd         1 MC       -0.452200
      5 C8           0.0630     0.0180     2.4740 c          1 MC        0.702900
      6 C81         -0.6880     0.0100     1.2030 cd         1 MC       -0.175600
      7 C9          -2.0580     0.0100     0.8890 cd         1 MC       -0.054300
      8 C91         -2.1670    -0.0010    -0.4650 cc         1 MC       -0.317600
      9 C11          3.7140    -0.0060     1.2540 c3         1 MC       -0.000900
     10 N4          -0.9270    -0.0030    -1.0090 na         1 MC        0.541900
     11 N7           2.2580     0.0190     3.6290 nz         1 MC        0.297600
     12 O5           2.0800    -0.0030    -1.0540 o          1 MC       -0.448100
     13 O8          -0.5290     0.0290     3.5350 o          1 MC       -0.529100
     14 C10         -3.2000     0.0210     1.8750 c3         1 MC        0.343700
     15 O10         -3.5630     1.3930     2.1790 os         1 MC       -0.409900
     16 C12         -4.5640     1.6490     3.0420 c          1 MC        0.436100
     17 O13         -5.1630     0.7330     3.5660 o          1 MC       -0.420000
     18 N14         -4.9000     2.9240     3.3240 nz         1 MC        0.262600
     19 C1          -3.2140    -0.0130    -1.5610 c3         1 MC        0.281400
     20 C2          -2.4380    -0.4500    -2.8240 c3         1 MC       -0.113500
     21 C3          -1.0020    -0.0070    -2.4810 c3         1 MC       -0.043700
     22 N1          -2.9370     0.2490    -4.0140 nz         1 MC        0.107400
     23 O0          -3.7680     1.2920    -1.7370 oh         1 MC       -0.589800
     24 H111         4.0670     0.0410     0.2310 hc         1 MC        0.063700
     25 H112         4.0840     0.8510     1.8040 hc         1 MC        0.063700
     26 H113         4.0760    -0.9160     1.7190 hc         1 MC        0.063700
     27 H71          2.7980     0.8590     3.6900 hn         1 MC        0.222800
     28 H72          2.8700    -0.7730     3.6560 hn         1 MC        0.222800
     29 H101        -4.0520    -0.4910     1.4450 h1         1 MC        0.043700
     30 H102        -2.8960    -0.4830     2.7840 h1         1 MC        0.043700
     31 H141        -4.1180     3.5220     3.1480 hn         1 MC        0.254800
     32 H142        -5.6690     3.2010     2.7460 hn         1 MC        0.254800
     33 H1          -3.9920    -0.7310    -1.3300 h1         1 MC        0.056700
     34 H2          -2.4870    -1.5250    -2.9500 hx         1 MC        0.124700
     35 H31         -0.2870    -0.7110    -2.8890 h1         1 MC        0.075200
     36 H32         -0.8180     0.9890    -2.8660 h1         1 MC        0.075200
     37 H11         -2.7960     1.2340    -3.9050 hn         1 MC        0.238800
     38 H12         -2.4400    -0.0710    -4.8220 hn         1 MC        0.238800
     39 H0          -4.7080     1.2430    -1.6940 ho         1 MC        0.436000
     40 H73          1.6220    -0.0350     4.4000 hn         1 MC        0.222800
     41 H143        -5.1820     2.9900     4.2820 hn         1 MC        0.254800
     42 H13         -3.9120     0.0580    -4.1290 hn         1 MC        0.238800
@<TRIPOS>BOND
     1     1     2 1   
     2     1     6 2   
     3     1    10 1   
     4     2     3 1   
     5     2    12 2   
     6     3     4 2   
     7     3     9 1   
     8     4     5 1   
     9     4    11 1   
    10     5     6 1   
    11     5    13 2   
    12     6     7 1   
    13     7     8 2   
    14     7    14 1   
    15     8    10 1   
    16     8    19 1   
    17     9    24 1   
    18     9    25 1   
    19     9    26 1   
    20    10    21 1   
    21    11    27 1   
    22    11    28 1   
    23    11    40 1   
    24    14    15 1   
    25    14    29 1   
    26    14    30 1   
    27    15    16 1   
    28    16    17 2   
    29    16    18 1   
    30    18    31 1   
    31    18    32 1   
    32    18    41 1   
    33    19    20 1   
    34    19    23 1   
    35    19    33 1   
    36    20    21 1   
    37    20    22 1   
    38    20    34 1   
    39    21    35 1   
    40    21    36 1   
    41    22    37 1   
    42    22    38 1   
    43    22    42 1   
    44    23    39 1   
@<TRIPOS>SUBSTRUCTURE
     1 MC          1 TEMP              0 ****  ****    0 ROOT
