@<TRIPOS>MOLECULE
molecule
   65    67     1     0     0
SMALL
bcc


@<TRIPOS>ATOM
      1 O2           0.0000     0.0000     0.0000 o          1 MC2      -0.581100
      2 C11          1.2120     0.0000     0.0000 c          1 MC2       0.645100
      3 N6           1.8870    -0.0010    -1.1660 ns         1 MC2      -0.452100
      4 C19          1.1930    -0.1170    -2.3760 ca         1 MC2       0.018600
      5 C21          0.0530    -0.8850    -2.4350 ca         1 MC2      -0.103000
      6 C20         -0.6440    -0.9950    -3.6500 ca         1 MC2      -0.024000
      7 C25         -1.8150    -1.7660    -3.7500 ca         1 MC2      -0.122000
      8 C24         -2.4630    -1.8560    -4.9430 ca         1 MC2      -0.107000
      9 C23         -1.9820    -1.1940    -6.0710 ca         1 MC2      -0.113000
     10 C18         -0.1550    -0.3220    -4.7970 ca         1 MC2      -0.040000
     11 C22         -0.8520    -0.4380    -6.0120 ca         1 MC2      -0.110000
     12 C17          1.6680     0.5460    -3.5130 ca         1 MC2      -0.155000
     13 C16          1.0150     0.4490    -4.7020 ca         1 MC2      -0.079000
     14 C10          1.9650     0.0000     1.3060 c3         1 MC2       0.032700
     15 C12          2.8430    -1.2500     1.3880 c3         1 MC2      -0.088400
     16 C13          3.6080    -1.2510     2.7120 c3         1 MC2      -0.097400
     17 C14          4.4870    -2.4990     2.7940 c3         1 MC2       0.244800
     18 N3           5.2190    -2.4990     4.0630 nu         1 MC2      -0.867200
     19 C15          6.0770    -3.5300     4.3610 c2         1 MC2       0.684100
     20 N5           6.2410    -4.5090     3.5160 n2         1 MC2      -0.762100
     21 N4           6.7640    -3.5320     5.5530 nz         1 MC2      -0.807600
     22 N2           1.0130    -0.0000     2.4180 ns         1 MC2      -0.522900
     23 C2           1.3430     0.5830     3.5870 c          1 MC2       0.637100
     24 O1           2.4280     1.1090     3.7180 o          1 MC2      -0.621100
     25 C1           0.3630     0.5840     4.7320 c3         1 MC2       0.030500
     26 N1           1.0970     0.5840     6.0050 nz         1 MC2      -0.793600
     27 C3          -0.5160     1.8330     4.6500 c3         1 MC2      -0.042100
     28 C4          -1.4960     1.8350     5.7950 ca         1 MC2      -0.167300
     29 C5          -2.7350     1.2420     5.6440 ca         1 MC2      -0.134000
     30 C7          -3.6320     1.2400     6.6950 ca         1 MC2      -0.105000
     31 C9          -3.2940     1.8370     7.8950 ca         1 MC2      -0.090000
     32 C8          -2.0560     2.4340     8.0440 ca         1 MC2      -0.105000
     33 C6          -1.1570     2.4330     6.9940 ca         1 MC2      -0.134000
     34 HN6          2.8810     0.1140    -1.1690 hn         1 MC2       0.324500
     35 H21         -0.2240    -1.5090    -1.5940 ha         1 MC2       0.141000
     36 H25         -2.2000    -2.2860    -2.8810 ha         1 MC2       0.133000
     37 H24         -3.3650    -2.4510    -5.0170 ha         1 MC2       0.139000
     38 H23         -2.5170    -1.2820    -7.0090 ha         1 MC2       0.143000
     39 H22         -0.4910     0.0710    -6.8980 ha         1 MC2       0.143000
     40 H17          2.5690     1.1430    -3.4460 ha         1 MC2       0.130000
     41 H16          1.3960     0.9680    -5.5730 ha         1 MC2       0.148000
     42 H10          2.5880     0.8840     1.3630 h1         1 MC2       0.109700
     43 H121         2.2200    -2.1340     1.3300 hc         1 MC2       0.075200
     44 H122         3.5480    -1.2500     0.5640 hc         1 MC2       0.075200
     45 H131         4.2310    -0.3660     2.7700 hc         1 MC2       0.047700
     46 H132         2.9040    -1.2510     3.5350 hc         1 MC2       0.047700
     47 H141         5.1920    -2.4990     1.9710 h1         1 MC2       0.081200
     48 H142         3.8650    -3.3840     2.7360 h1         1 MC2       0.081200
     49 HN3          5.1040    -1.7420     4.7080 hn         1 MC2       0.444800
     50 HN5          6.8660    -5.2590     3.7330 hn         1 MC2       0.451400
     51 HN41         6.2240    -4.0050     6.2490 hn         1 MC2       0.469800
     52 HN42         7.6390    -4.0020     5.4330 hn         1 MC2       0.469800
     53 HN2          0.1080    -0.4120     2.3030 hn         1 MC2       0.355500
     54 H1          -0.2610    -0.3000     4.6740 hx         1 MC2       0.121700
     55 HN11         0.4700     0.3580     6.7510 hn         1 MC2       0.459467
     56 HN12         1.4900     1.4910     6.1630 hn         1 MC2       0.459467
     57 H31          0.1070     2.7180     4.7070 hc         1 MC2       0.103700
     58 H32         -1.0580     1.8330     3.7110 hc         1 MC2       0.103700
     59 H5          -3.0000     0.7740     4.7030 ha         1 MC2       0.129000
     60 H7          -4.6030     0.7730     6.5770 ha         1 MC2       0.158500
     61 H9          -3.9980     1.8360     8.7180 ha         1 MC2       0.163000
     62 H8          -1.7910     2.9030     8.9840 ha         1 MC2       0.158500
     63 H6          -0.1880     2.9010     7.1110 ha         1 MC2       0.129000
     64 H43          6.9410    -2.5880     5.8370 hn         1 MC2       0.469800
     65 H13          1.8410    -0.0840     5.9610 hn         1 MC2       0.459467
@<TRIPOS>BOND
     1     1     2 2
     2     2     3 1
     3     2    14 1
     4     3     4 1
     5     3    34 1
     6     4     5 ar
     7     4    12 ar
     8     5     6 ar
     9     5    35 1
    10     6     7 ar
    11     6    10 ar
    12     7     8 ar
    13     7    36 1
    14     8     9 ar
    15     8    37 1
    16     9    11 ar
    17     9    38 1
    18    10    11 ar
    19    10    13 ar
    20    11    39 1
    21    12    13 ar
    22    12    40 1
    23    13    41 1
    24    14    15 1
    25    14    22 1
    26    14    42 1
    27    15    16 1
    28    15    43 1
    29    15    44 1
    30    16    17 1
    31    16    45 1
    32    16    46 1
    33    17    18 1
    34    17    47 1
    35    17    48 1
    36    18    19 1
    37    18    49 1
    38    19    20 2
    39    19    21 1
    40    20    50 1
    41    21    51 1
    42    21    52 1
    43    22    23 1
    44    22    53 1
    45    23    24 2
    46    23    25 1
    47    25    26 1
    48    25    27 1
    49    25    54 1
    50    26    55 1
    51    26    56 1
    52    27    28 1
    53    27    57 1
    54    27    58 1
    55    28    29 ar
    56    28    33 ar
    57    29    30 ar
    58    29    59 1
    59    30    31 ar
    60    30    60 1
    61    31    32 ar
    62    31    61 1
    63    32    33 ar
    64    32    62 1
    65    33    63 1
    66    64    21 1
    67    65    26 1
@<TRIPOS>SUBSTRUCTURE
     1 MC2         1 TEMP              0 ****  ****    0 ROOT
