@<TRIPOS>MOLECULE
MC3
  118   117     1     0     0
SMALL
bcc


@<TRIPOS>ATOM
      1 C1           0.0000     0.0000     0.0000 c3         1 MC3       0.225400
      2 C2           1.5290     0.0000     0.0000 c3         1 MC3       0.168100
      3 C3           2.0400     0.0000     1.4430 c3         1 MC3       0.238400
      4 C4          -4.1100    -2.2850     1.2980 c3         1 MC3       0.225400
      5 C5          -4.7510    -3.4920     1.9840 c3         1 MC3      -0.033200
      6 C6          -5.0810    -2.0910     3.9030 c3         1 MC3       0.009767
      7 C7          -5.2940    -4.4710     4.1060 c3         1 MC3       0.009767
      8 C8          -3.1350    -3.4850     3.7580 c3         1 MC3       0.009767
      9 C11          1.7670    -1.3230     3.4520 c          1 MC3       0.691100
     10 C12          1.1660    -2.4870     4.1970 c3         1 MC3      -0.064400
     11 C13          1.6760    -2.4870     5.6390 c3         1 MC3      -0.023400
     12 C14          1.0660    -3.6690     6.3960 c3         1 MC3      -0.027400
     13 C15          1.5750    -3.6690     7.8380 c3         1 MC3      -0.028400
     14 C16          0.9650    -4.8510     8.5940 c3         1 MC3      -0.028400
     15 C17          1.4740    -4.8510    10.0370 c3         1 MC3      -0.029400
     16 C18          0.8640    -6.0330    10.7930 c3         1 MC3      -0.028400
     17 C19          1.3740    -6.0340    12.2360 c3         1 MC3      -0.029400
     18 C20          0.7630    -7.2150    12.9920 c3         1 MC3      -0.029400
     19 C21          1.2730    -7.2160    14.4350 c3         1 MC3      -0.029400
     20 C22          0.6630    -8.3970    15.1910 c3         1 MC3      -0.029400
     21 C23          1.1720    -8.3970    16.6340 c3         1 MC3      -0.028400
     22 C24          0.5620    -9.5800    17.3900 c3         1 MC3       0.006900
     23 C32          2.7400    -2.3820    -2.7180 c3         1 MC3      -0.067400
     24 C33          2.9110    -2.0770    -4.2070 c3         1 MC3      -0.021400
     25 C34          3.4210    -3.3260    -4.9290 c3         1 MC3      -0.030400
     26 C35          3.5910    -3.0210    -6.4180 c3         1 MC3      -0.027400
     27 C36          4.1020    -4.2710    -7.1390 c3         1 MC3      -0.029400
     28 C37          4.2720    -3.9650    -8.6290 c3         1 MC3      -0.029400
     29 C38          4.7830    -5.2140    -9.3500 c3         1 MC3      -0.029400
     30 C39          4.9540    -4.9090   -10.8400 c3         1 MC3      -0.029400
     31 C40          5.4630    -6.1580   -11.5610 c3         1 MC3      -0.029400
     32 C41          5.6340    -5.8530   -13.0510 c3         1 MC3      -0.029400
     33 C42          6.1440    -7.1020   -13.7720 c3         1 MC3      -0.030400
     34 C43          6.3150    -6.7970   -15.2620 c3         1 MC3      -0.028400
     35 C44          6.8250    -8.0460   -15.9830 c3         1 MC3       0.006900
     36 N           -4.5660    -3.3850     3.4380 n4         1 MC3       0.062200
     37 O2           2.0130    -1.1860    -0.6840 os         1 MC3      -0.404900
     38 O3           1.4600    -1.1220     2.1610 os         1 MC3      -0.362900
     39 O11          2.5250    -0.5710     4.0170 o          1 MC3      -0.611000
     40 O31          2.0370    -0.1350    -2.6280 o          1 MC3      -0.595000
     41 O1P         -2.5710     0.2380     1.4440 o          1 MC3      -0.662500
     42 O2P         -2.5610    -1.0230    -0.7410 o          1 MC3      -0.662500
     43 O3P         -0.4770    -1.1040     0.7730 os         1 MC3      -0.443200
     44 O4P         -2.6920    -2.3350     1.4720 os         1 MC3      -0.490200
     45 P           -2.0860    -1.0430     0.7290 p5         1 MC3       0.893800
     46 H11         -0.3610    -0.0890    -1.0180 h1         1 MC3       0.028700
     47 H12         -0.3610     0.9260     0.4320 h1         1 MC3       0.028700
     48 H2           1.8910     0.8840    -0.5110 h1         1 MC3       0.039700
     49 H31          1.7530     0.9260     1.9270 h1         1 MC3       0.009700
     50 H32          3.1190    -0.0890     1.4440 h1         1 MC3       0.009700
     51 H41         -4.4950    -1.3730     1.7380 h1         1 MC3       0.048700
     52 H42         -4.3450    -2.3030     0.2410 h1         1 MC3       0.048700
     53 H51         -4.2830    -4.4020     1.6270 hx         1 MC3       0.065200
     54 H52         -5.8100    -3.5180     1.7560 hx         1 MC3       0.065200
     55 H61         -4.3290    -1.3260     3.7500 hx         1 MC3       0.070811
     56 H62         -5.9740    -1.8360     3.3440 hx         1 MC3       0.070811
     57 H63         -5.3220    -2.1550     4.9570 hx         1 MC3       0.070811
     58 H71         -6.3510    -4.3890     3.8810 hx         1 MC3       0.070811
     59 H72         -4.9230    -5.4260     3.7530 hx         1 MC3       0.070811
     60 H73         -5.1460    -4.4000     5.1770 hx         1 MC3       0.070811
     61 H81         -2.6930    -2.4960     3.7500 hx         1 MC3       0.070811
     62 H82         -2.6430    -4.1060     3.0190 hx         1 MC3       0.070811
     63 H83         -3.0150    -3.9270     4.7400 hx         1 MC3       0.070811
     64 H121         0.0870    -2.3980     4.1950 hc         1 MC3       0.027200
     65 H122         1.4530    -3.4120     3.7120 hc         1 MC3       0.027200
     66 H131         2.7560    -2.5770     5.6410 hc         1 MC3       0.031700
     67 H132         1.3900    -1.5620     6.1240 hc         1 MC3       0.031700
     68 H141        -0.0140    -3.5800     6.3940 hc         1 MC3       0.004700
     69 H142         1.3530    -4.5950     5.9110 hc         1 MC3       0.004700
     70 H151         1.2870    -2.7440     8.3220 hc         1 MC3       0.019700
     71 H152         2.6540    -3.7570     7.8400 hc         1 MC3       0.019700
     72 H161         1.2530    -5.7770     8.1100 hc         1 MC3       0.009700
     73 H162        -0.1150    -4.7630     8.5930 hc         1 MC3       0.009700
     74 H171         1.1870    -3.9260    10.5210 hc         1 MC3       0.017200
     75 H172         2.5540    -4.9400    10.0390 hc         1 MC3       0.017200
     76 H181        -0.2160    -5.9440    10.7920 hc         1 MC3       0.012200
     77 H182         1.1500    -6.9580    10.3090 hc         1 MC3       0.012200
     78 H191         1.0870    -5.1080    12.7210 hc         1 MC3       0.016200
     79 H192         2.4530    -6.1230    12.2370 hc         1 MC3       0.016200
     80 H201        -0.3160    -7.1260    12.9910 hc         1 MC3       0.013700
     81 H202         1.0500    -8.1410    12.5080 hc         1 MC3       0.013700
     82 H211         2.3530    -7.3050    14.4360 hc         1 MC3       0.015200
     83 H212         0.9870    -6.2900    14.9190 hc         1 MC3       0.015200
     84 H221        -0.4170    -8.3090    15.1890 hc         1 MC3       0.014200
     85 H222         0.9500    -9.3230    14.7070 hc         1 MC3       0.014200
     86 H231         0.8840    -7.4720    17.1180 hc         1 MC3       0.012700
     87 H232         2.2510    -8.4860    16.6360 hc         1 MC3       0.012700
     88 H241         0.9230    -9.5800    18.4120 hc         1 MC3       0.000033
     89 H242         0.8490   -10.5050    16.9060 hc         1 MC3       0.000033
     90 H243        -0.5180    -9.4910    17.3890 hc         1 MC3       0.000033
     91 H321         2.0260    -3.1880    -2.5940 hc         1 MC3       0.032700
     92 H322         3.6940    -2.6770    -2.2980 hc         1 MC3       0.032700
     93 H331         3.6250    -1.2710    -4.3310 hc         1 MC3       0.030700
     94 H332         1.9570    -1.7820    -4.6270 hc         1 MC3       0.030700
     95 H341         4.3750    -3.6210    -4.5090 hc         1 MC3       0.011200
     96 H342         2.7070    -4.1310    -4.8040 hc         1 MC3       0.011200
     97 H351         4.3050    -2.2150    -6.5430 hc         1 MC3       0.017700
     98 H352         2.6370    -2.7270    -6.8380 hc         1 MC3       0.017700
     99 H361         3.3880    -5.0760    -7.0150 hc         1 MC3       0.013200
    100 H362         5.0560    -4.5650    -6.7200 hc         1 MC3       0.013200
    101 H371         3.3180    -3.6700    -9.0480 hc         1 MC3       0.015200
    102 H372         4.9860    -3.1590    -8.7530 hc         1 MC3       0.015200
    103 H381         4.0690    -6.0200    -9.2260 hc         1 MC3       0.013700
    104 H382         5.7370    -5.5090    -8.9300 hc         1 MC3       0.013700
    105 H391         5.6680    -4.1040   -10.9640 hc         1 MC3       0.014700
    106 H392         4.0000    -4.6140   -11.2600 hc         1 MC3       0.014700
    107 H401         6.4180    -6.4530   -11.1410 hc         1 MC3       0.013700
    108 H402         4.7500    -6.9630   -11.4360 hc         1 MC3       0.013700
    109 H411         6.3470    -5.0480   -13.1750 hc         1 MC3       0.014700
    110 H412         4.6800    -5.5580   -13.4700 hc         1 MC3       0.014700
    111 H421         7.0980    -7.3970   -13.3530 hc         1 MC3       0.014700
    112 H422         5.4300    -7.9070   -13.6490 hc         1 MC3       0.014700
    113 H431         7.0280    -5.9910   -15.3850 hc         1 MC3       0.011700
    114 H432         5.3610    -6.5010   -15.6810 hc         1 MC3       0.011700
    115 H441         7.7760    -8.3440   -15.5590 hc         1 MC3      -0.000300
    116 H442         6.9510    -7.8280   -17.0370 hc         1 MC3      -0.000300
    117 H443         6.1080    -8.8490   -15.8640 hc         1 MC3      -0.000300
    118 C31          2.2380    -1.1520    -2.0070 c          1 MC3       0.698100
@<TRIPOS>BOND
     1     1     2 1   
     2     1    43 1   
     3     1    46 1   
     4     1    47 1   
     5     2     3 1   
     6     2    37 1   
     7     2    48 1   
     8     3    38 1   
     9     3    49 1   
    10     3    50 1   
    11     4     5 1   
    12     4    44 1   
    13     4    51 1   
    14     4    52 1   
    15     5    36 1   
    16     5    53 1   
    17     5    54 1   
    18     6    36 1   
    19     6    55 1   
    20     6    56 1   
    21     6    57 1   
    22     7    36 1   
    23     7    58 1   
    24     7    59 1   
    25     7    60 1   
    26     8    36 1   
    27     8    61 1   
    28     8    62 1   
    29     8    63 1   
    30     9    10 1   
    31     9    38 1   
    32     9    39 2   
    33    10    11 1   
    34    10    64 1   
    35    10    65 1   
    36    11    12 1   
    37    11    66 1   
    38    11    67 1   
    39    12    13 1   
    40    12    68 1   
    41    12    69 1   
    42    13    14 1   
    43    13    70 1   
    44    13    71 1   
    45    14    15 1   
    46    14    72 1   
    47    14    73 1   
    48    15    16 1   
    49    15    74 1   
    50    15    75 1   
    51    16    17 1   
    52    16    76 1   
    53    16    77 1   
    54    17    18 1   
    55    17    78 1   
    56    17    79 1   
    57    18    19 1   
    58    18    80 1   
    59    18    81 1   
    60    19    20 1   
    61    19    82 1   
    62    19    83 1   
    63    20    21 1   
    64    20    84 1   
    65    20    85 1   
    66    21    22 1   
    67    21    86 1   
    68    21    87 1   
    69    22    88 1   
    70    22    89 1   
    71    22    90 1   
    72    23    24 1   
    73    23    91 1   
    74    23    92 1   
    75    23   118 1   
    76    24    25 1   
    77    24    93 1   
    78    24    94 1   
    79    25    26 1   
    80    25    95 1   
    81    25    96 1   
    82    26    27 1   
    83    26    97 1   
    84    26    98 1   
    85    27    28 1   
    86    27    99 1   
    87    27   100 1   
    88    28    29 1   
    89    28   101 1   
    90    28   102 1   
    91    29    30 1   
    92    29   103 1   
    93    29   104 1   
    94    30    31 1   
    95    30   105 1   
    96    30   106 1   
    97    31    32 1   
    98    31   107 1   
    99    31   108 1   
   100    32    33 1   
   101    32   109 1   
   102    32   110 1   
   103    33    34 1   
   104    33   111 1   
   105    33   112 1   
   106    34    35 1   
   107    34   113 1   
   108    34   114 1   
   109    35   115 1   
   110    35   116 1   
   111    35   117 1   
   112    37   118 1   
   113    40   118 2   
   114    41    45 1   
   115    42    45 1   
   116    43    45 1   
   117    44    45 1   
@<TRIPOS>SUBSTRUCTURE
     1 MC3         1 TEMP              0 ****  ****    0 ROOT
