@<TRIPOS>MOLECULE
molecule
   43    46     1     0     0
SMALL
bcc


@<TRIPOS>ATOM
      1 F            0.0000     0.0000     0.0000 f          1 MC5      -0.142900
      2 N           -1.6230     2.0350   -13.1140 ns         1 MC5      -0.584500
      3 S           -1.1440     2.2620   -10.6480 ss         1 MC5      -0.240700
      4 C1           0.6020    -0.0030    -7.3940 ca         1 MC5      -0.069000
      5 O1           2.2210    -0.0020    -3.5890 os         1 MC5      -0.332900
      6 C2           2.0080    -0.0030    -7.2210 ca         1 MC5       0.005000
      7 O2           0.1290     0.9750   -13.9960 o          1 MC5      -0.573500
      8 C3          -0.2340    -0.0010    -6.2640 ca         1 MC5      -0.072000
      9 O3          -3.2970     3.1000   -12.0010 o          1 MC5      -0.543500
     10 C4           0.0680    -0.0080    -8.6950 ca         1 MC5      -0.084000
     11 C5           0.9060    -0.0140    -9.7670 ca         1 MC5      -0.115300
     12 C6           2.5430    -0.0030    -5.9220 ca         1 MC5      -0.165000
     13 C7           1.7020    -0.0020    -4.8460 ca         1 MC5       0.148100
     14 C8           2.8420    -0.0050    -8.3520 ca         1 MC5      -0.121000
     15 C9           0.3150    -0.0010    -5.0200 ca         1 MC5      -0.203000
     16 C10          4.1160     0.0000     0.0000 ca         1 MC5      -0.144000
     17 C11          2.2900    -0.0150    -9.5960 ca         1 MC5      -0.110000
     18 C13          0.1360     1.4210   -11.6370 c3         1 MC5      -0.067600
     19 C14         -0.4410     1.4470   -13.0360 c          1 MC5       0.702500
     20 C15          3.4250     0.0000     1.1980 ca         1 MC5      -0.101000
     21 C16         -2.2170     2.5430   -12.0310 c          1 MC5       0.737100
     22 C17          2.0440     0.0000     1.1980 ca         1 MC5      -0.165000
     23 C19          2.0440    -0.0000    -1.1980 ca         1 MC5      -0.131300
     24 C20          1.3500    -0.0000     0.0010 ca         1 MC5       0.135900
     25 C21          3.4260    -0.0010    -1.1980 ca         1 MC5      -0.079000
     26 HN          -2.0820     2.0990   -14.0010 hn         1 MC5       0.350500
     27 H3          -1.3110    -0.0010    -6.3840 ha         1 MC5       0.138000
     28 H4          -1.0050    -0.0070    -8.8430 ha         1 MC5       0.143000
     29 H6           3.6100     0.1140    -5.7760 ha         1 MC5       0.147000
     30 H8           3.9190    -0.0060    -8.2350 ha         1 MC5       0.138000
     31 H9          -0.3320    -0.0010    -4.1510 ha         1 MC5       0.138000
     32 H10          5.1990    -0.0000     0.0000 ha         1 MC5       0.137000
     33 H11          2.9350    -0.0190   -10.4670 ha         1 MC5       0.131000
     34 H12         -0.6260    -0.5300   -11.1520 hc         1 MC5       0.070700
     35 H12A         1.0090    -0.5340   -11.8290 hc         1 MC5       0.070700
     36 H13          1.0680     1.9720   -11.6000 h1         1 MC5       0.123700
     37 H15          3.9670     0.0010     2.1360 ha         1 MC5       0.137000
     38 H17          1.5030     0.0000     2.1370 ha         1 MC5       0.147000
     39 H18          0.6690     0.8840    -2.5630 h1         1 MC5       0.052700
     40 H18A         0.6680    -0.8850    -2.5620 h1         1 MC5       0.052700
     41 H21          3.9680    -0.0010    -2.1360 ha         1 MC5       0.157000
     42 C18          1.2910    -0.0010    -2.5050 c3         1 MC5       0.189700
     43 C12          0.3300    -0.0200   -11.1590 c3         1 MC5      -0.009100
@<TRIPOS>BOND
     1     1    24 1
     2     2    19 1
     3     2    21 1
     4     3    18 1
     5     3    21 1
     6     4     6 ar
     7     4     8 ar
     8     4    10 ar
     9     5    13 1
    10     5    42 1
    11     6    12 ar
    12     6    14 ar
    13     7    19 2
    14     8    15 ar
    15     9    21 2
    16    10    11 ar
    17    11    17 ar
    18    11    43 1
    19    12    13 ar
    20    13    15 ar
    21    14    17 ar
    22    16    20 ar
    23    16    25 ar
    24    43    18 1
    25    18    19 1
    26    20    22 ar
    27    22    24 ar
    28    42    23 1
    29    23    24 ar
    30    23    25 ar
    31     2    26 1
    32     8    27 1
    33    10    28 1
    34    12    29 1
    35    14    30 1
    36    15    31 1
    37    16    32 1
    38    17    33 1
    39    43    34 1
    40    43    35 1
    41    18    36 1
    42    20    37 1
    43    22    38 1
    44    42    39 1
    45    42    40 1
    46    25    41 1
@<TRIPOS>SUBSTRUCTURE
     1 MC5         1 TEMP              0 ****  ****    0 ROOT
