@<TRIPOS>MOLECULE
MC5
   43    46     1     0     0
SMALL
bcc


@<TRIPOS>ATOM
      1 F            0.0000     0.0000     0.0000 f          1 MC5      -0.128900
      2 N           -1.6230     2.0350   -13.1140 ns         1 MC5      -0.166500
      3 S           -1.1440     2.2620   -10.6480 ss         1 MC5      -0.312700
      4 C1           0.6020    -0.0030    -7.3940 ca         1 MC5      -0.072000
      5 O1           2.2210    -0.0020    -3.5890 os         1 MC5      -0.309900
      6 C2           2.0080    -0.0030    -7.2210 ca         1 MC5       0.010000
      7 O2           0.1290     0.9750   -13.9960 o          1 MC5      -0.605500
      8 C3          -0.2340    -0.0010    -6.2640 ca         1 MC5      -0.036000
      9 O3          -3.2970     3.1000   -12.0010 o          1 MC5      -0.565500
     10 C4           0.0680    -0.0080    -8.6950 ca         1 MC5      -0.054000
     11 C5           0.9060    -0.0140    -9.7670 ca         1 MC5      -0.131300
     12 C6           2.5430    -0.0030    -5.9220 ca         1 MC5      -0.149000
     13 C7           1.7020    -0.0020    -4.8460 ca         1 MC5       0.155100
     14 C8           2.8420    -0.0050    -8.3520 ca         1 MC5      -0.096000
     15 C9           0.3150    -0.0010    -5.0200 ca         1 MC5      -0.193000
     16 C10          4.1160     0.0000     0.0000 ca         1 MC5      -0.111000
     17 C11          2.2900    -0.0150    -9.5960 ca         1 MC5      -0.082000
     18 C13          0.1360     1.4210   -11.6370 c3         1 MC5      -0.025600
     19 C14         -0.4410     1.4470   -13.0360 c          1 MC5       0.612500
     20 C15          3.4250     0.0000     1.1980 ca         1 MC5      -0.075000
     21 C16         -2.2170     2.5430   -12.0310 c          1 MC5       0.674100
     22 C17          2.0440     0.0000     1.1980 ca         1 MC5      -0.130000
     23 C19          2.0440    -0.0000    -1.1980 ca         1 MC5      -0.136300
     24 C20          1.3500    -0.0000     0.0010 ca         1 MC5       0.107900
     25 C21          3.4260    -0.0010    -1.1980 ca         1 MC5      -0.059000
     26 HN          -2.0820     2.0990   -14.0010 hn         1 MC5       0.197500
     27 H3          -1.3110    -0.0010    -6.3840 ha         1 MC5       0.108000
     28 H4          -1.0050    -0.0070    -8.8430 ha         1 MC5       0.121000
     29 H6           3.6100     0.1140    -5.7760 ha         1 MC5       0.122000
     30 H8           3.9190    -0.0060    -8.2350 ha         1 MC5       0.110000
     31 H9          -0.3320    -0.0010    -4.1510 ha         1 MC5       0.122000
     32 H10          5.1990    -0.0000     0.0000 ha         1 MC5       0.108000
     33 H11          2.9350    -0.0190   -10.4670 ha         1 MC5       0.105000
     34 H12         -0.6260    -0.5300   -11.1520 hc         1 MC5       0.036700
     35 H12A         1.0090    -0.5340   -11.8290 hc         1 MC5       0.036700
     36 H13          1.0680     1.9720   -11.6000 h1         1 MC5       0.096700
     37 H15          3.9670     0.0010     2.1360 ha         1 MC5       0.107000
     38 H17          1.5030     0.0000     2.1370 ha         1 MC5       0.119000
     39 H18          0.6690     0.8840    -2.5630 h1         1 MC5       0.015700
     40 H18A         0.6680    -0.8850    -2.5620 h1         1 MC5       0.015700
     41 H21          3.9680    -0.0010    -2.1360 ha         1 MC5       0.126000
     42 C18          1.2910    -0.0010    -2.5050 c3         1 MC5       0.267700
     43 C12          0.3300    -0.0200   -11.1590 c3         1 MC5       0.063900
@<TRIPOS>BOND
     1     1    24 1   
     2     2    19 1   
     3     2    21 1   
     4     2    26 1   
     5     3    18 1   
     6     3    21 1   
     7     4     6 ar  
     8     4     8 ar  
     9     4    10 ar  
    10     5    13 1   
    11     5    42 1   
    12     6    12 ar  
    13     6    14 ar  
    14     7    19 2   
    15     8    15 ar  
    16     8    27 1   
    17     9    21 2   
    18    10    11 ar  
    19    10    28 1   
    20    11    17 ar  
    21    11    43 1   
    22    12    13 ar  
    23    12    29 1   
    24    13    15 ar  
    25    14    17 ar  
    26    14    30 1   
    27    15    31 1   
    28    16    20 ar  
    29    16    25 ar  
    30    16    32 1   
    31    17    33 1   
    32    18    19 1   
    33    18    36 1   
    34    18    43 1   
    35    20    22 ar  
    36    20    37 1   
    37    22    24 ar  
    38    22    38 1   
    39    23    24 ar  
    40    23    25 ar  
    41    23    42 1   
    42    25    41 1   
    43    34    43 1   
    44    35    43 1   
    45    39    42 1   
    46    40    42 1   
@<TRIPOS>SUBSTRUCTURE
     1 MC5         1 TEMP              0 ****  ****    0 ROOT
