@<TRIPOS>MOLECULE
MC9
   70    73     1     0     0
SMALL
bcc


@<TRIPOS>ATOM
      1 O2          0.6330   -0.4890    0.6080 oh        1 MC9     -0.594800
      2 O1          1.1190    3.6560   -0.5320 oh        1 MC9     -0.597800
      3 C1          1.1390    2.4730    0.2600 c3        1 MC9      0.184300
      4 C2          1.8180    1.3360   -0.5010 c3        1 MC9     -0.143400
      5 C3          1.9120    0.0800    0.3530 c3        1 MC9      0.150100
      6 C4          2.5620    0.3550    1.7080 c3        1 MC9     -0.034200
      7 C5          2.0520    1.5790    2.3920 ce        1 MC9     -0.072200
      8 C6          1.8150    1.5620    3.7210 cf        1 MC9     -0.113000
      9 C7          1.3110    2.6800    4.4840 cf        1 MC9     -0.148000
     10 C8          1.4350    2.8380    5.8130 c2        1 MC9     -0.081400
     11 C9          2.1240    1.8770    6.7280 c3        1 MC9     -0.044200
     12 C10         1.8650    2.7590    1.5460 ce        1 MC9     -0.088200
     13 C11         3.0560    2.5370    7.7320 c3        1 MC9     -0.071400
     14 C12         2.4760    3.7670    8.4090 c3        1 MC9     -0.066400
     15 C13         1.9210    4.7330    7.3750 c3        1 MC9     -0.042000
     16 C14         0.8370    3.9750    6.5600 c3        1 MC9     -0.036500
     17 C15         0.0770    5.0860    5.8470 c3        1 MC9     -0.072400
     18 C16         0.1150    6.2700    6.8200 c3        1 MC9     -0.077400
     19 C17         1.0870    5.8960    7.9510 c3        1 MC9     -0.049700
     20 C18         3.0320    5.2380    6.4720 c3        1 MC9     -0.087100
     21 C19         2.2910    3.9820    1.8790 c2        1 MC9     -0.181000
     22 C20         1.8580    7.0530    8.5760 c3        1 MC9     -0.039500
     23 C22         2.6620    7.8710    7.6270 c2        1 MC9     -0.121200
     24 C24         4.8150    8.0600    8.9820 c3        1 MC9      0.208300
     25 C21         0.8780    7.9630    9.3060 c3        1 MC9     -0.084100
     26 C25         5.5310    6.7370    8.8480 cx        1 MC9     -0.118700
     27 C26         7.0130    6.6620    9.1010 cx        1 MC9     -0.128400
     28 C27         6.4860    6.5330    7.7030 cx        1 MC9     -0.128400
     29 O3          4.1390    8.0290   10.2380 oh        1 MC9     -0.599800
     30 C23         3.9100    8.3080    7.8170 c2        1 MC9     -0.230200
     31 HO2         0.2000   -0.5970   -0.2460 ho        1 MC9      0.396000
     32 HO1         0.6160    3.4420   -1.3270 ho        1 MC9      0.399000
     33 H1          0.0790    2.1710    0.5070 h1        1 MC9      0.053700
     34 H21         1.2400    1.1180   -1.4360 hc        1 MC9      0.052700
     35 H22A        2.8490    1.6560   -0.8020 hc        1 MC9      0.052700
     36 H3          2.5350   -0.6850   -0.1970 h1        1 MC9      0.031700
     37 H41         3.6660    0.4770    1.5380 hc        1 MC9      0.060200
     38 H42         2.4080   -0.5480    2.3580 hc        1 MC9      0.060200
     39 H6          1.9840    0.6240    4.2800 ha        1 MC9      0.124000
     40 H7          0.7720    3.4470    3.8950 ha        1 MC9      0.133000
     41 H91         1.3280    1.3100    7.2860 hc        1 MC9      0.046200
     42 H92         2.7170    1.1260    6.1420 hc        1 MC9      0.046200
     43 H111        3.3230    1.7820    8.5180 hc        1 MC9      0.040200
     44 H112        4.0080    2.8230    7.2110 hc        1 MC9      0.040200
     45 H121        1.6600    3.4610    9.1150 hc        1 MC9      0.042200
     46 H122        3.2740    4.2720    9.0140 hc        1 MC9      0.042200
     47 H14         0.1180    3.5120    7.3030 hc        1 MC9      0.054700
     48 H151       -0.9720    4.7790    5.6180 hc        1 MC9      0.045700
     49 H152        0.5740    5.3590    4.8830 hc        1 MC9      0.045700
     50 H161       -0.9000    6.4690    7.2430 hc        1 MC9      0.040700
     51 H162        0.4420    7.1960    6.2880 hc        1 MC9      0.040700
     52 H17         0.4700    5.4590    8.7920 hc        1 MC9      0.045700
     53 H181        2.6480    6.0420    5.7970 hc        1 MC9      0.040033
     54 H182        3.8700    5.6560    7.0840 hc        1 MC9      0.040033
     55 H183        3.4280    4.4100    5.8360 hc        1 MC9      0.040033
     56 H191        2.8150    4.1790    2.8240 ha        1 MC9      0.125500
     57 H192        2.1430    4.8470    1.2190 ha        1 MC9      0.125500
     58 H20         2.5590    6.5990    9.3410 hc        1 MC9      0.076700
     59 H22         2.1390    8.1540    6.6960 ha        1 MC9      0.121000
     60 H24         5.5730    8.9000    9.0260 h1        1 MC9      0.035700
     61 H211        0.1250    8.3750    8.5910 hc        1 MC9      0.034367
     62 H212        0.3410    7.3930   10.1010 hc        1 MC9      0.034367
     63 H213        1.4180    8.8140    9.7850 hc        1 MC9      0.034367
     64 H25         4.8980    5.8890    9.1780 hc        1 MC9      0.095700
     65 H261        7.4190    5.7710    9.6100 hc        1 MC9      0.070950
     66 H262        7.5560    7.5810    9.3870 hc        1 MC9      0.070950
     67 H271        6.6490    7.3610    6.9900 hc        1 MC9      0.070950
     68 H272        6.5100    5.5490    7.2030 hc        1 MC9      0.070950
     69 HO3         3.4950    8.7460   10.2230 ho        1 MC9      0.403000
     70 H23         4.3910    8.9110    7.0260 ha        1 MC9      0.122000
@<TRIPOS>BOND
     1    1    5 1   
     2    1   31 1   
     3    2    3 1   
     4    2   32 1   
     5    3    4 1   
     6    3   12 1   
     7    3   33 1   
     8    4    5 1   
     9    4   34 1   
    10    4   35 1   
    11    5    6 1   
    12    5   36 1   
    13    6    7 1   
    14    6   37 1   
    15    6   38 1   
    16    7    8 2   
    17    7   12 1   
    18    8    9 1   
    19    8   39 1   
    20    9   10 2   
    21    9   40 1   
    22   10   11 1   
    23   10   16 1   
    24   11   13 1   
    25   11   41 1   
    26   11   42 1   
    27   12   21 2   
    28   13   14 1   
    29   13   43 1   
    30   13   44 1   
    31   14   15 1   
    32   14   45 1   
    33   14   46 1   
    34   15   16 1   
    35   15   19 1   
    36   15   20 1   
    37   16   17 1   
    38   16   47 1   
    39   17   18 1   
    40   17   48 1   
    41   17   49 1   
    42   18   19 1   
    43   18   50 1   
    44   18   51 1   
    45   19   22 1   
    46   19   52 1   
    47   20   53 1   
    48   20   54 1   
    49   20   55 1   
    50   21   56 1   
    51   21   57 1   
    52   22   23 1   
    53   22   25 1   
    54   22   58 1   
    55   23   30 2   
    56   23   59 1   
    57   24   26 1   
    58   24   29 1   
    59   24   30 1   
    60   24   60 1   
    61   25   61 1   
    62   25   62 1   
    63   25   63 1   
    64   26   27 1   
    65   26   28 1   
    66   26   64 1   
    67   27   28 1   
    68   27   65 1   
    69   27   66 1   
    70   28   67 1   
    71   28   68 1   
    72   29   69 1   
    73   30   70 1   
@<TRIPOS>SUBSTRUCTURE
     1 MC9         1 TEMP              0 ****  ****    0 ROOT
