@<TRIPOS>MOLECULE
molecule
   70    73     1     0     0
SMALL
bcc


@<TRIPOS>ATOM
      1 O2           0.0000     0.0000     0.0000 oh         1 MC9      -0.606800
      2 O1           1.9540     3.8680    -0.7350 oh         1 MC9      -0.611800
      3 C1           1.5200     2.6530    -0.0380 c3         1 MC9       0.192300
      4 C2           1.9610     1.3170    -0.7850 c3         1 MC9      -0.102400
      5 C3           1.4600     0.0000     0.0000 c3         1 MC9       0.148100
      6 C4           1.9980     0.0000     1.5020 c3         1 MC9      -0.028200
      7 C5           1.6770     1.3060     2.3030 ce         1 MC9      -0.058200
      8 C6           1.1290     1.3270     3.5780 cf         1 MC9      -0.117000
      9 C7           0.7660     2.4490     4.4870 cf         1 MC9      -0.133000
     10 C8           0.7610     2.4910     5.7980 c2         1 MC9      -0.089400
     11 C9           1.1770     1.2430     6.7350 c3         1 MC9      -0.038200
     12 C10          2.0740     2.6220     1.4540 ce         1 MC9      -0.097200
     13 C11          2.4010     1.5970     7.7390 c3         1 MC9      -0.065400
     14 C12          2.1720     3.0550     8.4020 c3         1 MC9      -0.069400
     15 C13          1.6660     4.3510     7.4470 c3         1 MC9      -0.057000
     16 C14          0.3720     3.7650     6.6080 c3         1 MC9      -0.040500
     17 C15         -0.0700     5.1640     5.7740 c3         1 MC9      -0.079400
     18 C16          0.3200     6.3080     6.8160 c3         1 MC9      -0.079400
     19 C17          0.9080     5.5460     8.0650 c3         1 MC9      -0.025700
     20 C18          3.0690     4.6150     6.4830 c3         1 MC9      -0.057100
     21 C19          2.8570     3.6540     1.9620 c2         1 MC9      -0.199000
     22 C20          1.8680     6.5030     9.0350 c3         1 MC9      -0.026500
     23 C22          2.8450     7.5510     8.4240 c2         1 MC9      -0.143200
     24 C24          5.0280     8.9400     8.4300 c3         1 MC9       0.225300
     25 C21          0.9780     7.2930    10.0190 c3         1 MC9      -0.089100
     26 C25          6.4770     8.3840     7.9860 cx         1 MC9      -0.101700
     27 C26          7.1760     8.1370     9.3430 cx         1 MC9      -0.159900
     28 C27          7.6560     8.9770     8.0880 cx         1 MC9      -0.159900
     29 O3           5.0390     9.9320     9.4920 oh         1 MC9      -0.599800
     30 C23          4.1300     7.7620     8.8260 c2         1 MC9      -0.183200
     31 HO2         -0.3140    -0.7270    -0.5110 ho         1 MC9       0.397000
     32 HO1          1.3640     4.0500    -1.4480 ho         1 MC9       0.402000
     33 H1           0.4380     2.6610     0.0110 h1         1 MC9       0.055700
     34 H21          1.5370     1.3150    -1.7810 hc         1 MC9       0.049700
     35 H22A         3.0420     1.2950    -0.8550 hc         1 MC9       0.049700
     36 H3           1.8250    -0.8820    -0.5120 h1         1 MC9       0.039700
     37 H41          1.5540    -0.8390     2.0250 hc         1 MC9       0.052200
     38 H42          3.0730    -0.1320     1.4810 hc         1 MC9       0.052200
     39 H6           0.9270     0.3540     4.0100 ha         1 MC9       0.112000
     40 H7           0.4650     3.3560     3.9770 ha         1 MC9       0.124000
     41 H91          1.4730     0.4160     6.1020 hc         1 MC9       0.042700
     42 H92          0.3170     0.9490     7.3250 hc         1 MC9       0.042700
     43 H111         2.4480     0.8500     8.5230 hc         1 MC9       0.043200
     44 H112         3.3310     1.5990     7.1820 hc         1 MC9       0.043200
     45 H121         1.4380     2.9340     9.1900 hc         1 MC9       0.030200
     46 H122         3.1080     3.3460     8.8640 hc         1 MC9       0.030200
     47 H14         -0.4150     3.5080     7.3070 hc         1 MC9       0.059700
     48 H151         0.5030     5.2640     4.8600 hc         1 MC9       0.048700
     49 H152        -1.1350     5.1720     5.5740 hc         1 MC9       0.048700
     50 H161         1.0710     6.9620     6.3890 hc         1 MC9       0.046200
     51 H162        -0.5600     6.8710     7.1010 hc         1 MC9       0.046200
     52 H17          0.0840     5.1640     8.6550 hc         1 MC9       0.058700
     53 H181         3.2380     3.7530     5.8480 hc         1 MC9       0.035700
     54 H182         2.9240     5.4940     5.8670 hc         1 MC9       0.035700
     55 H183         3.9270     4.7620     7.1270 hc         1 MC9       0.035700
     56 H191         3.0970     4.5090     1.3410 ha         1 MC9       0.126000
     57 H192         3.2210     3.6070     2.9820 ha         1 MC9       0.126000
     58 H20          2.4720     5.8270     9.6280 hc         1 MC9       0.047700
     59 H22          2.4070     8.2770     7.7500 ha         1 MC9       0.110000
     60 H24          4.5830     9.4070     7.5600 h1         1 MC9       0.020700
     61 H211         1.5940     7.7110    10.8060 hc         1 MC9       0.036700
     62 H212         0.4760     8.0930     9.4890 hc         1 MC9       0.036700
     63 H213         0.2400     6.6280    10.4520 hc         1 MC9       0.036700
     64 H25          6.4720     7.4740     7.3990 hc         1 MC9       0.081700
     65 H261         6.9620     8.7910    10.1800 hc         1 MC9       0.079200
     66 H262         7.7950     7.2570     9.4710 hc         1 MC9       0.079200
     67 H271         7.6240    10.0530     8.2110 hc         1 MC9       0.079200
     68 H272         8.4520     8.5280     7.5070 hc         1 MC9       0.079200
     69 HO3          4.7620    10.7650     9.1470 ho         1 MC9       0.403000
     70 H23          4.5030     7.1400     9.6310 ha         1 MC9       0.129000
@<TRIPOS>BOND
     1     1     5 1
     2     1    31 1
     3     2     3 1
     4     2    32 1
     5     3     4 1
     6     3    12 1
     7     3    33 1
     8     4     5 1
     9     4    34 1
    10     4    35 1
    11     5     6 1
    12     5    36 1
    13     6     7 1
    14     6    37 1
    15     6    38 1
    16     7     8 2
    17     7    12 1
    18     8     9 1
    19     8    39 1
    20     9    10 2
    21     9    40 1
    22    10    11 1
    23    10    16 1
    24    11    13 1
    25    11    41 1
    26    11    42 1
    27    12    21 2
    28    13    14 1
    29    13    43 1
    30    13    44 1
    31    14    15 1
    32    14    45 1
    33    14    46 1
    34    15    16 1
    35    15    19 1
    36    15    20 1
    37    16    17 1
    38    16    47 1
    39    17    18 1
    40    17    48 1
    41    17    49 1
    42    18    19 1
    43    18    50 1
    44    18    51 1
    45    19    22 1
    46    19    52 1
    47    20    53 1
    48    20    54 1
    49    20    55 1
    50    21    56 1
    51    21    57 1
    52    22    23 1
    53    22    25 1
    54    22    58 1
    55    23    30 2
    56    23    59 1
    57    24    26 1
    58    24    29 1
    59    24    30 1
    60    24    60 1
    61    25    61 1
    62    25    62 1
    63    25    63 1
    64    26    27 1
    65    26    28 1
    66    26    64 1
    67    27    28 1
    68    27    65 1
    69    27    66 1
    70    28    67 1
    71    28    68 1
    72    29    69 1
    73    30    70 1
@<TRIPOS>SUBSTRUCTURE
     1 MC9         1 TEMP              0 ****  ****    0 ROOT
