@<TRIPOS>MOLECULE
MCB
    7     6     1     0     0
SMALL
bcc


@<TRIPOS>ATOM
      1 CA          0.0170   -0.0100    0.0310 c3        1 MCB     -0.221100
      2 C           1.5060    0.0080   -0.0020 c         1 MCB      0.561900
      3 O           2.2010    0.4500    0.9130 o         1 MCB     -0.526100
      4 HA1        -0.3760    0.4260    0.9810 hc        1 MCB      0.065033
      5 HA2        -0.3830    0.5800   -0.8300 hc        1 MCB      0.065033
      6 HA1A       -0.3470   -1.0630   -0.0610 hc        1 MCB      0.065033
      7 H           1.9660   -0.4130   -0.9250 h4        1 MCB     -0.009800
@<TRIPOS>BOND
     1    1    2 1   
     2    1    4 1   
     3    1    5 1   
     4    1    6 1   
     5    2    3 2   
     6    2    7 1   
@<TRIPOS>SUBSTRUCTURE
     1 MCB         1 TEMP              0 ****  ****    0 ROOT
