@<TRIPOS>MOLECULE
MCE
    8     7     1     0     0
SMALL
bcc


@<TRIPOS>ATOM
      1 C1          0.0070   -0.0000    0.0080 c3        1 MCE     -0.107100
      2 C2          1.5090   -0.0000    0.0090 c3        1 MCE      0.039000
      3 CL          2.1640    0.0010    1.6410 cl        1 MCE     -0.202400
      4 H11        -0.3630   -0.0000   -1.0470 hc        1 MCE      0.048700
      5 H12        -0.3940    0.9060    0.5240 hc        1 MCE      0.048700
      6 H13        -0.3940   -0.9050    0.5250 hc        1 MCE      0.048700
      7 H21         1.9150   -0.9130   -0.4900 h1        1 MCE      0.062700
      8 H22         1.9150    0.9120   -0.4910 h1        1 MCE      0.062700
@<TRIPOS>BOND
     1    1    2 1   
     2    1    4 1   
     3    1    5 1   
     4    1    6 1   
     5    2    3 1   
     6    2    7 1   
     7    2    8 1   
@<TRIPOS>SUBSTRUCTURE
     1 MCE         1 TEMP              0 ****  ****    0 ROOT
