@<TRIPOS>MOLECULE
molecule
    8     7     1     0     0
SMALL
bcc


@<TRIPOS>ATOM
      1 C1           0.0000     0.0000     0.0000 c3         1 MCE      -0.104100
      2 C2           1.5300     0.0000     0.0000 c3         1 MCE       0.050000
      3 Cl           2.1310     0.0000     1.7000 cl         1 MCE      -0.211400
      4 H11         -0.3610    -0.8850     0.5110 hc         1 MCE       0.047700
      5 H12         -0.3610     0.8850     0.5110 hc         1 MCE       0.047700
      6 H13         -0.3610    -0.0000    -1.0210 hc         1 MCE       0.047700
      7 H21          1.8910     0.8850    -0.5110 h1         1 MCE       0.061700
      8 H22          1.8910    -0.8850    -0.5110 h1         1 MCE       0.061700
@<TRIPOS>BOND
     1     1     2 1
     2     1     4 1
     3     1     5 1
     4     1     6 1
     5     2     3 1
     6     2     7 1
     7     2     8 1
@<TRIPOS>SUBSTRUCTURE
     1 MCE         1 TEMP              0 ****  ****    0 ROOT
