@<TRIPOS>MOLECULE
molecule
   39    41     1     0     0
SMALL
bcc


@<TRIPOS>ATOM
      1 O8           0.0000     0.0000     0.0000 oh         1 MCF      -0.595800
      2 C8           1.4280     0.0000     0.0000 c3         1 MCF       0.104800
      3 C7           1.9230     0.0000     1.4330 c3         1 MCF       0.224800
      4 N6           1.3590     1.1030     2.1870 nu         1 MCF      -0.915200
      5 C5           1.7290     2.3920     2.0410 c2         1 MCF       0.702100
      6 N4           2.0610     2.9670     0.9520 ne         1 MCF      -0.686100
      7 C10          2.1660     2.4490    -0.2940 cc         1 MCF       0.097800
      8 C9           1.9190     1.2010    -0.7580 cd         1 MCF       0.257600
      9 N1           2.1910     1.1870    -2.0780 nd         1 MCF      -0.702000
     10 C2           2.5830     2.3670    -2.4610 cc         1 MCF       0.423400
     11 N3           2.5800     3.1950    -1.3870 na         1 MCF      -0.198900
     12 C1S          2.9460     4.6140    -1.3820 c3         1 MCF       0.264800
     13 C2S          4.4320     4.7930    -0.9790 c3         1 MCF       0.098100
     14 O2S          4.5710     4.8540     0.4420 oh         1 MCF      -0.553800
     15 O4S          2.8920     5.1570    -2.7190 os         1 MCF      -0.402600
     16 C4S          3.7180     6.3340    -2.7270 c3         1 MCF       0.139100
     17 C3S          4.7820     6.1550    -1.6270 c3         1 MCF       0.084100
     18 O3S          4.6880     7.2060    -0.6650 oh         1 MCF      -0.569800
     19 C5S          4.3970     6.4830    -4.0900 c3         1 MCF       0.003700
     20 S5S          3.1440     6.8190    -5.3580 ss         1 MCF      -0.314200
     21 C6S          4.1270     6.9600    -6.8750 c3         1 MCF      -0.007000
     22 HO8         -0.3140    -0.7690    -0.4450 ho         1 MCF       0.401000
     23 H8           1.7850    -0.8960    -0.4940 h1         1 MCF       0.052700
     24 H7           1.5200    -0.8990     1.8830 h1         1 MCF       0.064200
     25 H7A          2.9870     0.1970     1.3770 h1         1 MCF       0.064200
     26 HN6          0.6480     0.8940     2.8590 hn         1 MCF       0.433800
     27 H5           1.7470     2.9990     2.9380 h5         1 MCF       0.036800
     28 H2           2.8640     2.6430    -3.4700 h5         1 MCF       0.075100
     29 H1S          2.3020     5.1780    -0.7180 h2         1 MCF       0.115700
     30 H2S          5.0400     4.0020    -1.3990 h1         1 MCF       0.057700
     31 HO2S         5.4200     4.5280     0.6890 ho         1 MCF       0.400000
     32 H4S          3.1130     7.2070    -2.5140 h1         1 MCF       0.089700
     33 H3S          5.7730     6.1200    -2.0640 h1         1 MCF       0.044700
     34 HO3S         5.4730     7.7280    -0.6920 ho         1 MCF       0.403000
     35 H5S          4.9210     5.5670    -4.3340 h1         1 MCF       0.062700
     36 H5SA         5.1030     7.3040    -4.0530 h1         1 MCF       0.062700
     37 H6S          4.6550     6.0310    -7.0510 h1         1 MCF       0.060033
     38 H6SA         4.8420     7.7670    -6.7680 h1         1 MCF       0.060033
     39 H6SB         3.4720     7.1670    -7.7120 h1         1 MCF       0.060033
@<TRIPOS>BOND
     1     2     1 1
     2     1    22 1
     3     3     2 1
     4     2     8 1
     5     2    23 1
     6     3     4 1
     7     3    24 1
     8     3    25 1
     9     4     5 1
    10     4    26 1
    11     5     6 2
    12     5    27 1
    13     6     7 1
    14     8     7 2
    15     7    11 1
    16     8     9 1
    17     9    10 2
    18    10    11 1
    19    10    28 1
    20    11    12 1
    21    15    12 1
    22    12    13 1
    23    12    29 1
    24    13    17 1
    25    13    14 1
    26    13    30 1
    27    14    31 1
    28    15    16 1
    29    19    16 1
    30    16    17 1
    31    16    32 1
    32    17    18 1
    33    17    33 1
    34    18    34 1
    35    19    20 1
    36    19    35 1
    37    19    36 1
    38    20    21 1
    39    21    37 1
    40    21    38 1
    41    21    39 1
@<TRIPOS>SUBSTRUCTURE
     1 MCF         1 TEMP              0 ****  ****    0 ROOT
