@<TRIPOS>MOLECULE
MCH
    5     4     1     0     0
SMALL
bcc


@<TRIPOS>ATOM
      1 C1          0.0160    0.0400    0.0230 c3        1 MCH      0.223500
      2 Cl2         1.7630   -0.0090   -0.0120 cl        1 MCH     -0.114400
      3 Cl1        -0.5840   -0.0030    1.6640 cl        1 MCH     -0.114400
      4 Cl3        -0.5950    1.4330   -0.8380 cl        1 MCH     -0.114400
      5 H1         -0.3590   -0.8730   -0.4990 h3        1 MCH      0.118700
@<TRIPOS>BOND
     1    1    2 1   
     2    1    3 1   
     3    1    4 1   
     4    1    5 1   
@<TRIPOS>SUBSTRUCTURE
     1 MCH         1 TEMP              0 ****  ****    0 ROOT
