@<TRIPOS>MOLECULE
molecule
    5     4     1     0     0
SMALL
bcc


@<TRIPOS>ATOM
      1 C1           0.0000     0.0000     0.0000 c3         1 MCH       0.263500
      2 Cl2          1.8030     0.0000     0.0000 cl         1 MCH      -0.129400
      3 Cl1         -0.6010     0.0000     1.7000 cl         1 MCH      -0.129400
      4 Cl3         -0.6010     1.4720    -0.8500 cl         1 MCH      -0.129400
      5 H1          -0.3610    -0.8840    -0.5110 h3         1 MCH       0.124700
@<TRIPOS>BOND
     1     4     1 1
     2     1     3 1
     3     1     2 1
     4     1     5 1
@<TRIPOS>SUBSTRUCTURE
     1 MCH         1 TEMP              0 ****  ****    0 ROOT
