@<TRIPOS>MOLECULE
molecule
   47    49     1     0     0
SMALL
bcc


@<TRIPOS>ATOM
      1 C2           0.0000     0.0000     0.0000 ca         1 MCI      -0.073300
      2 C1           1.4310     0.0000     0.0000 ca         1 MCI      -0.126000
      3 C3          -0.6770     0.0120     1.2510 ca         1 MCI      -0.126000
      4 C4           0.0450     0.0170     2.4600 ca         1 MCI      -0.131000
      5 C5           1.4520     0.0090     2.4360 ca         1 MCI      -0.141000
      6 C6           2.1470     0.0000     1.2060 ca         1 MCI      -0.131000
      7 C12         -0.7870    -0.0480    -1.3040 c3         1 MCI      -0.031100
      8 C13         -0.6520    -1.3360    -2.1560 c3         1 MCI      -0.063400
      9 C16         -1.4490    -2.5710    -1.6800 c3         1 MCI      -0.121700
     10 C19         -0.7730    -3.8700    -2.1470 c3         1 MCI       0.018700
     11 S20         -1.6960    -5.3180    -1.5630 sh         1 MCI      -0.318900
     12 C23         -2.9020    -2.5460    -2.3290 c          1 MCI       0.731500
     13 O25         -3.0110    -2.4750    -3.5370 o          1 MCI      -0.613100
     14 N26         -4.0190    -2.6170    -1.5870 ne         1 MCI      -0.761100
     15 C27         -4.3590    -3.3310    -0.3640 cf         1 MCI       0.601900
     16 C28         -4.9310    -4.7560    -0.6360 c          1 MCI       0.809300
     17 O29         -5.7880    -5.0070    -1.4140 o          1 MCI      -0.751300
     18 O30         -4.3760    -5.6760     0.1640 o          1 MCI      -0.751300
     19 C31         -5.3920    -2.5390     0.3790 cd         1 MCI      -0.092000
     20 C33         -6.0550    -1.4270    -0.0060 cc         1 MCI      -0.127000
     21 C34         -6.8550    -0.8510     1.0850 cc         1 MCI      -0.120000
     22 C35         -6.9760    -1.6960     2.1320 cd         1 MCI      -0.125400
     23 S36         -5.8870    -3.0730     1.9570 ss         1 MCI      -0.102800
     24 C37         -7.8820    -1.6070     3.3700 c3         1 MCI       0.111600
     25 N38         -9.0530    -2.5490     3.5680 na         1 MCI      -0.021400
     26 C41         -9.1830    -3.8170     2.9390 cc         1 MCI       0.394400
     27 N42        -10.4770    -4.1610     2.5910 nd         1 MCI      -0.360000
     28 N43        -11.1950    -2.9970     2.8300 nd         1 MCI      -0.038000
     29 N44        -10.2870    -1.9420     3.1560 nc         1 MCI      -0.272800
     30 H11          1.9670     0.0040    -0.9410 ha         1 MCI       0.132500
     31 H31         -1.7600     0.0200     1.2730 ha         1 MCI       0.132500
     32 H41         -0.4800     0.1020     3.4040 ha         1 MCI       0.125000
     33 H51          2.0070     0.0090     3.3670 ha         1 MCI       0.121000
     34 H61          3.2280     0.0630     1.1940 ha         1 MCI       0.125000
     35 H121        -1.8350     0.0850    -1.0650 hc         1 MCI       0.048700
     36 H122        -0.4720     0.7900    -1.9140 hc         1 MCI       0.048700
     37 H131        -0.9700    -1.1030    -3.1650 hc         1 MCI       0.047700
     38 H132         0.3960    -1.6070    -2.1880 hc         1 MCI       0.047700
     39 H161        -1.5280    -2.5650    -0.5990 hc         1 MCI       0.074700
     40 H191        -0.7360    -3.8830    -3.2290 h1         1 MCI       0.050700
     41 H192         0.2360    -3.9080    -1.7540 h1         1 MCI       0.050700
     42 HS          -0.9380    -6.4020    -1.6780 hs         1 MCI       0.175800
     43 H331        -5.8520    -0.9070    -0.9350 ha         1 MCI       0.176000
     44 H341        -7.4410     0.0540     0.9830 ha         1 MCI       0.143000
     45 H371        -8.2820    -0.6010     3.3940 h1         1 MCI       0.074700
     46 H372        -7.2410    -1.7190     4.2360 h1         1 MCI       0.074700
     47 H411        -8.3350    -4.4630     2.7470 h5         1 MCI       0.080100
@<TRIPOS>BOND
     1     1     2 ar
     2     1     3 ar
     3     1     7 1
     4     2     6 ar
     5     2    30 1
     6     3     4 ar
     7     3    31 1
     8     4     5 ar
     9     4    32 1
    10     5     6 ar
    11     5    33 1
    12     6    34 1
    13     7     8 1
    14     7    35 1
    15     7    36 1
    16     8     9 1
    17     8    37 1
    18     8    38 1
    19     9    10 1
    20     9    12 1
    21     9    39 1
    22    10    11 1
    23    10    40 1
    24    10    41 1
    25    11    42 1
    26    12    13 2
    27    12    14 1
    28    14    15 2
    29    15    16 1
    30    15    19 1
    31    16    17 1
    32    16    18 1
    33    19    20 2
    34    19    23 1
    35    20    21 1
    36    20    43 1
    37    21    22 2
    38    21    44 1
    39    22    23 1
    40    22    24 1
    41    24    25 1
    42    24    45 1
    43    24    46 1
    44    25    26 1
    45    25    29 1
    46    26    27 2
    47    26    47 1
    48    27    28 1
    49    28    29 2
@<TRIPOS>SUBSTRUCTURE
     1 MCI         1 TEMP              0 ****  ****    0 ROOT
