@<TRIPOS>MOLECULE
molecule
   77    79     1     0     0
SMALL
bcc


@<TRIPOS>ATOM
      1 C1           0.0000     0.0000     0.0000 ca         1 MCJ       0.159100
      2 N1          -2.8310    -0.0020     2.4020 ns         1 MCJ      -0.580900
      3 O1          -0.6820     0.0060    -1.1740 oh         1 MCJ      -0.468100
      4 C3         -10.0720    -5.5210     5.3650 ca         1 MCJ       0.155100
      5 N3          -7.9870    -3.5470     3.0110 ns         1 MCJ      -0.541900
      6 O3         -11.0140    -5.9960     4.5110 oh         1 MCJ      -0.469100
      7 C4           1.3920     0.0000     0.0000 ca         1 MCJ       0.065100
      8 O4           2.0720     0.0010    -1.1780 oh         1 MCJ      -0.501100
      9 C6         -10.1230    -5.8540     6.7160 ca         1 MCJ       0.057100
     10 O6         -11.1160    -6.6580     7.1810 oh         1 MCJ      -0.520100
     11 C7           2.0840     0.0000     1.1990 ca         1 MCJ      -0.183000
     12 O7          -2.7850    -0.0000     0.1810 o          1 MCJ      -0.540100
     13 C9          -9.1610    -5.3680     7.5840 ca         1 MCJ      -0.174000
     14 O9          -9.8210    -4.7580     2.6920 o          1 MCJ      -0.590100
     15 C10          1.3980    -0.0010     2.4020 ca         1 MCJ      -0.125000
     16 C12         -8.1450    -4.5490     7.1170 ca         1 MCJ      -0.176000
     17 O12         -9.4160    -1.4880     2.2440 o          1 MCJ      -0.828800
     18 C13          0.0200    -0.0010     2.4190 ca         1 MCJ      -0.121000
     19 O14         -8.8990    -1.4840     0.0960 o          1 MCJ      -0.828800
     20 C15         -8.0830    -4.2120     5.7830 ca         1 MCJ      -0.108000
     21 C16         -0.6920    -0.0010     1.2160 ca         1 MCJ      -0.125600
     22 C18         -9.0440    -4.6980     4.8920 ca         1 MCJ      -0.095600
     23 C19         -2.1670    -0.0010     1.2290 c          1 MCJ       0.674700
     24 C21         -8.9790    -4.3390     3.4620 c          1 MCJ       0.670700
     25 C22         -4.2960    -0.0010     2.4160 c3         1 MCJ       0.081700
     26 C24         -7.9230    -3.1900     1.5920 c3         1 MCJ       0.003700
     27 C25         -4.8050    -1.2320     1.7090 c          1 MCJ       0.617100
     28 C27         -8.8010    -1.9920     1.3350 c          1 MCJ       0.890600
     29 C30         -6.4790    -2.8540     1.2150 c3         1 MCJ       0.156400
     30 C32         -4.8130     1.2490     1.6990 c3         1 MCJ       0.129400
     31 O33         -4.4220     2.4310     2.4470 os         1 MCJ      -0.436900
     32 C34         -4.8000     3.6180     1.9490 c          1 MCJ       0.638100
     33 O35         -5.4360     3.6690     0.9220 o          1 MCJ      -0.530000
     34 C36         -4.4300     4.8900     2.6700 c3         1 MCJ       0.084700
     35 N37         -4.9550     6.0400     1.9300 ns         1 MCJ      -0.563900
     36 C38         -5.0300     4.8700     4.0770 c3         1 MCJ       0.125400
     37 O39         -6.4410     4.6540     3.9900 oh         1 MCJ      -0.603800
     38 C40         -4.3680     7.2470     2.0570 c          1 MCJ       0.678700
     39 O41         -3.4040     7.3800     2.7850 o          1 MCJ      -0.603100
     40 C42         -4.8960     8.4060     1.3130 ca         1 MCJ      -0.149600
     41 C43         -4.2910     9.6610     1.4410 ca         1 MCJ       0.157100
     42 C44         -4.7970    10.7460     0.7340 ca         1 MCJ       0.048100
     43 C45         -5.8960    10.5830    -0.0920 ca         1 MCJ      -0.142000
     44 C46         -6.4960     9.3410    -0.2190 ca         1 MCJ      -0.133000
     45 C47         -6.0030     8.2550     0.4710 ca         1 MCJ      -0.093000
     46 O48         -3.2130     9.8180     2.2530 oh         1 MCJ      -0.484100
     47 O49         -4.2130    11.9700     0.8550 oh         1 MCJ      -0.516100
     48 HN1         -2.3230    -0.0310     3.2640 hn         1 MCJ       0.312500
     49 HN3         -7.2730    -3.2330     3.6380 hn         1 MCJ       0.300500
     50 HO3        -10.9130    -6.9290     4.4190 ho         1 MCJ       0.420000
     51 HO6        -11.6080    -6.1990     7.8420 ho         1 MCJ       0.419000
     52 H7           3.1670     0.0000     1.1950 ha         1 MCJ       0.128000
     53 H10          1.9480    -0.0010     3.3360 ha         1 MCJ       0.130000
     54 H13         -0.5100    -0.0020     3.3630 ha         1 MCJ       0.130000
     55 H15         -7.1850    -3.6070     5.8300 ha         1 MCJ       0.146000
     56 H22         -4.6480    -0.0010     3.4400 h1         1 MCJ       0.084700
     57 H24         -8.2670    -4.0250     0.9930 h1         1 MCJ       0.088700
     58 H30         -6.4160    -2.6760     0.1480 h1         1 MCJ       0.050700
     59 H30A        -5.8340    -3.6830     1.4810 h1         1 MCJ       0.050700
     60 H32         -5.8930     1.2050     1.6310 h1         1 MCJ       0.100200
     61 H32A        -4.3890     1.2950     0.7030 h1         1 MCJ       0.100200
     62 H36         -3.3520     4.9660     2.7380 h1         1 MCJ       0.104700
     63 HN37        -5.7470     5.9290     1.3290 hn         1 MCJ       0.345500
     64 H38         -4.5770     4.0720     4.6520 h1         1 MCJ       0.039700
     65 H38A        -4.8400     5.8190     4.5640 h1         1 MCJ       0.039700
     66 HO39        -6.8160     4.6760     4.8550 ho         1 MCJ       0.407000
     67 H45         -6.2900    11.4300    -0.6400 ha         1 MCJ       0.136000
     68 H46         -7.3540     9.2210    -0.8680 ha         1 MCJ       0.140000
     69 H47         -6.4760     7.2860     0.3670 ha         1 MCJ       0.149000
     70 HO48        -2.4560    10.0330     1.7320 ho         1 MCJ       0.429000
     71 HO49        -4.8390    12.5840     1.2000 ho         1 MCJ       0.422000
     72 H28         -0.4570    -0.7620    -1.6720 ho         1 MCJ       0.430000
     73 H29          2.9300     0.3680    -1.0460 ho         1 MCJ       0.422000
     74 O10         -4.0860    -1.8290     0.9430 o          1 MCJ      -0.531000
     75 O15         -6.0560    -1.6630     1.9290 os         1 MCJ      -0.402900
     76 H9          -9.0410    -5.5740     8.6410 ha         1 MCJ       0.126000
     77 H12         -7.4370    -4.2140     7.8650 ha         1 MCJ       0.121000
@<TRIPOS>BOND
     1     1    21 ar
     2     1     7 ar
     3     2    23 1
     4     2    48 1
     5     3     1 1
     6     4     9 ar
     7     5    24 1
     8     5    49 1
     9     6     4 1
    10     6    50 1
    11     7    11 ar
    12     8     7 1
    13     9    10 1
    14     9    13 ar
    15    10    51 1
    16    11    15 ar
    17    11    52 1
    18    13    76 1
    19    14    24 2
    20    15    53 1
    21    74    27 2
    22    16    13 ar
    23    16    77 1
    24    17    28 1
    25    18    15 ar
    26    18    54 1
    27    20    16 ar
    28    20    55 1
    29    75    27 1
    30    21    18 ar
    31    22     4 ar
    32    22    20 ar
    33    23    12 2
    34    23    21 1
    35    24    22 1
    36    25     2 1
    37    25    56 1
    38    26     5 1
    39    26    57 1
    40    27    25 1
    41    28    19 1
    42    28    26 1
    43    29    75 1
    44    29    26 1
    45    29    58 1
    46    29    59 1
    47    30    25 1
    48    30    60 1
    49    30    61 1
    50    31    30 1
    51    32    31 1
    52    32    33 2
    53    34    32 1
    54    34    35 1
    55    34    62 1
    56    35    63 1
    57    36    34 1
    58    36    64 1
    59    36    65 1
    60    37    36 1
    61    37    66 1
    62    38    35 1
    63    38    40 1
    64    39    38 2
    65    40    41 ar
    66    41    42 ar
    67    41    46 1
    68    42    47 1
    69    43    42 ar
    70    43    67 1
    71    44    43 ar
    72    44    68 1
    73    45    40 ar
    74    45    44 ar
    75    45    69 1
    76    46    70 1
    77    47    71 1
    78     3    72 1
    79     8    73 1
@<TRIPOS>SUBSTRUCTURE
     1 MCJ         1 TEMP              0 ****  ****    0 ROOT
