@<TRIPOS>MOLECULE
MCK
   64    65     1     0     0
SMALL
bcc


@<TRIPOS>ATOM
      1 C1           0.0000     0.0000     0.0000 ca         1 MCK      -0.175600
      2 C2           1.4000     0.0000     0.0000 ca         1 MCK       0.175100
      3 C3           2.0880     0.0000     1.2100 ca         1 MCK       0.058100
      4 C4           1.3880     0.0010     2.4040 ca         1 MCK      -0.107000
      5 C5           0.0030     0.0000     2.4030 ca         1 MCK      -0.110000
      6 C6          -0.6920     0.0000     1.2150 ca         1 MCK      -0.083000
      7 C7          -0.7430     0.0050    -1.2760 c          1 MCK       0.604700
      8 O8          -0.1370     0.0100    -2.3300 o          1 MCK      -0.600100
      9 N9          -2.0900     0.0060    -1.2710 ns         1 MCK      -0.200900
     10 O10          2.0810    -0.0020    -1.1730 oh         1 MCK      -0.447100
     11 O11          3.4480    -0.0010     1.2170 oh         1 MCK      -0.498100
     12 C12         -2.8260     0.0110    -2.5390 c3         1 MCK      -0.021300
     13 C13         -2.4630    -1.2160    -3.3350 c          1 MCK       0.671100
     14 C14         -2.4590     1.2630    -3.3360 c3         1 MCK       0.194400
     15 O15         -2.9140     2.4430    -2.6220 os         1 MCK      -0.377900
     16 O16         -1.4440    -1.8150    -3.0910 o          1 MCK      -0.542000
     17 O17         -3.2750    -1.6430    -4.3160 os         1 MCK      -0.387900
     18 C18         -2.8640    -2.8310    -5.0420 c3         1 MCK       0.238400
     19 C19         -3.9060    -3.1620    -6.1110 c3         1 MCK      -0.110300
     20 N20         -3.9390    -2.0910    -7.1080 ns         1 MCK      -0.146900
     21 C21         -5.2630    -3.2910    -5.4680 c          1 MCK       0.975600
     22 O22         -5.4700    -4.2150    -4.5170 o          1 MCK      -0.880300
     23 O23         -6.1640    -2.5620    -5.8080 o          1 MCK      -0.880300
     24 C24         -2.6680     3.6340    -3.1920 c          1 MCK       0.695100
     25 O25         -2.0910     3.6880    -4.2520 o          1 MCK      -0.562000
     26 C26         -3.1110     4.9020    -2.5090 c3         1 MCK      -0.146500
     27 N27         -2.3430     6.0370    -3.0380 nz         1 MCK       0.097400
     28 C28         -4.6020     5.1270    -2.7700 c3         1 MCK       0.223400
     29 C29         -4.3660    -2.3480    -8.3610 c          1 MCK       0.585700
     30 O30         -4.7230    -3.4710    -8.6620 o          1 MCK      -0.621100
     31 C31         -4.3990    -1.2690    -9.3660 ca         1 MCK      -0.138600
     32 C32         -4.8410    -1.5340   -10.6680 ca         1 MCK       0.174100
     33 C33         -4.8670    -0.5070   -11.6080 ca         1 MCK       0.054100
     34 C34         -4.4590     0.7670   -11.2540 ca         1 MCK      -0.129000
     35 C35         -4.0210     1.0280    -9.9650 ca         1 MCK      -0.127000
     36 C36         -3.9930     0.0240    -9.0220 ca         1 MCK      -0.088000
     37 O37         -5.2400    -2.7840   -11.0110 oh         1 MCK      -0.450100
     38 O38         -5.2960    -0.7560   -12.8750 oh         1 MCK      -0.498100
     39 O45         -5.0480     6.2650    -2.0280 oh         1 MCK      -0.618800
     40 H4           1.9270     0.0010     3.3440 ha         1 MCK       0.114000
     41 H5          -0.5360     0.0010     3.3430 ha         1 MCK       0.109000
     42 H6          -1.7750     0.0000     1.2210 ha         1 MCK       0.104000
     43 HN9         -2.5870    -0.0490    -0.4050 hn         1 MCK       0.185500
     44 HO10         2.5600     0.8060    -1.2600 ho         1 MCK       0.401000
     45 HO11         3.7600    -0.8470     1.4920 ho         1 MCK       0.415000
     46 H12         -3.8900     0.0100    -2.3380 h1         1 MCK       0.064700
     47 H14         -2.9340     1.2240    -4.3090 h1         1 MCK       0.057200
     48 H14A        -1.3840     1.3100    -3.4610 h1         1 MCK       0.057200
     49 H18         -1.9060    -2.6520    -5.5140 h1         1 MCK       0.016700
     50 H18A        -2.7770    -3.6630    -4.3530 h1         1 MCK       0.016700
     51 H19         -3.6450    -4.0960    -6.5930 h1         1 MCK       0.073700
     52 HN20        -3.6070    -1.1770    -6.8720 hn         1 MCK       0.151500
     53 H26         -2.9400     4.8160    -1.4420 hx         1 MCK       0.111700
     54 HN27        -2.4710     6.8320    -2.4440 hn         1 MCK       0.231467
     55 HN2A        -1.3720     5.7970    -3.0700 hn         1 MCK       0.231467
     56 H28         -4.7610     5.3000    -3.8280 h1         1 MCK       0.038700
     57 H28A        -5.1590     4.2520    -2.4590 h1         1 MCK       0.038700
     58 H34         -4.4790     1.5640   -11.9880 ha         1 MCK       0.103000
     59 H35         -3.7050     2.0290    -9.6960 ha         1 MCK       0.090000
     60 H36         -3.6500     0.2350    -8.0160 ha         1 MCK       0.103000
     61 HO37        -4.6110    -3.1650   -11.6010 ho         1 MCK       0.404000
     62 HO38        -6.1460    -0.3660   -13.0010 ho         1 MCK       0.404000
     63 HO45        -5.9860     6.2340    -1.9390 ho         1 MCK       0.448000
     64 H273        -2.6590     6.2510    -3.9630 hn         1 MCK       0.231467
@<TRIPOS>BOND
     1     1     2 ar  
     2     1     6 ar  
     3     1     7 1   
     4     2     3 ar  
     5     2    10 1   
     6     3     4 ar  
     7     3    11 1   
     8     4     5 ar  
     9     4    40 1   
    10     5     6 ar  
    11     5    41 1   
    12     6    42 1   
    13     7     8 2   
    14     7     9 1   
    15     9    12 1   
    16     9    43 1   
    17    10    44 1   
    18    11    45 1   
    19    12    13 1   
    20    12    14 1   
    21    12    46 1   
    22    13    16 2   
    23    13    17 1   
    24    14    15 1   
    25    14    47 1   
    26    14    48 1   
    27    15    24 1   
    28    17    18 1   
    29    18    19 1   
    30    18    49 1   
    31    18    50 1   
    32    19    20 1   
    33    19    21 1   
    34    19    51 1   
    35    20    29 1   
    36    20    52 1   
    37    21    22 1   
    38    21    23 1   
    39    24    25 2   
    40    24    26 1   
    41    26    27 1   
    42    26    28 1   
    43    26    53 1   
    44    27    54 1   
    45    27    55 1   
    46    27    64 1   
    47    28    39 1   
    48    28    56 1   
    49    28    57 1   
    50    29    30 2   
    51    29    31 1   
    52    31    32 ar  
    53    31    36 ar  
    54    32    33 ar  
    55    32    37 1   
    56    33    34 ar  
    57    33    38 1   
    58    34    35 ar  
    59    34    58 1   
    60    35    36 ar  
    61    35    59 1   
    62    36    60 1   
    63    37    61 1   
    64    38    62 1   
    65    39    63 1   
@<TRIPOS>SUBSTRUCTURE
     1 MCK         1 TEMP              0 ****  ****    0 ROOT
