@<TRIPOS>MOLECULE
MCM
   22    23     1     0     0
SMALL
bcc


@<TRIPOS>ATOM
      1 N          -0.0240   -0.1320    0.0440 nh        1 MCM     -0.837200
      2 CA          1.3590   -0.0410    0.0180 ca        1 MCM      0.209600
      3 C2          2.0980    0.0250    1.2170 ca        1 MCM     -0.237000
      4 C3          3.4970    0.0300    1.1600 ca        1 MCM      0.199100
      5 C4          5.5310    0.1050    2.4060 c         1 MCM      0.725800
      6 C5          6.2760    0.0500    1.1630 cc        1 MCM     -0.281200
      7 C6          5.6440   -0.0110   -0.0350 cd        1 MCM      0.063600
      8 C7          4.1980   -0.0200   -0.0630 ca        1 MCM     -0.202800
      9 C8          3.4430   -0.0760   -1.2470 ca        1 MCM     -0.033000
     10 C9          2.0630   -0.0820   -1.2200 ca        1 MCM     -0.225000
     11 C10         6.3980   -0.0680   -1.3090 c3        1 MCM     -0.073900
     12 O1          4.1340    0.0930    2.3810 os        1 MCM     -0.329200
     13 O2          5.9440    0.1670    3.5640 o         1 MCM     -0.573500
     14 HN1        -0.4710    0.1460    0.8860 hn        1 MCM      0.410800
     15 HN2        -0.4990    0.1090   -0.7930 hn        1 MCM      0.410800
     16 H2          1.6050    0.0620    2.1990 ha        1 MCM      0.159000
     17 H5          7.3710    0.0590    1.2620 ha        1 MCM      0.166000
     18 H8          3.9670   -0.1140   -2.2160 ha        1 MCM      0.137000
     19 H9          1.5010   -0.1300   -2.1650 ha        1 MCM      0.138000
     20 H101        6.1340    0.8090   -1.9520 hc        1 MCM      0.056700
     21 H102        6.1420   -1.0050   -1.8650 hc        1 MCM      0.056700
     22 H103        7.5010   -0.0550   -1.1270 hc        1 MCM      0.056700
@<TRIPOS>BOND
     1    1    2 1
     2    1   14 1
     3    1   15 1
     4    2    3 ar
     5    2   10 ar
     6    3    4 ar
     7    3   16 1
     8    4    8 ar
     9    4   12 1
    10    5    6 1
    11    5   12 1
    12    5   13 2
    13    6    7 2
    14    6   17 1
    15    7    8 1
    16    7   11 1
    17    8    9 ar
    18    9   10 ar
    19    9   18 1
    20   10   19 1
    21   11   20 1
    22   11   21 1
    23   11   22 1
@<TRIPOS>SUBSTRUCTURE
     1 MCM         1 TEMP              0 ****  ****    0 ROOT
