@<TRIPOS>MOLECULE
MCO
   28    28     1     0     0
SMALL
bcc


@<TRIPOS>ATOM
      1 O2         -0.5320    0.0630    0.5800 o         1 MCO     -0.836800
      2 C9          0.6930    0.0790    0.2710 c         1 MCO      0.917600
      3 O3          1.1270    0.1290   -0.9110 o         1 MCO     -0.836800
      4 C8          1.7860    0.0730    1.3910 c3        1 MCO     -0.030300
      5 C7          2.4640    1.4600    1.4100 c3        1 MCO     -0.073400
      6 C6          1.8940    2.1870    2.6240 c3        1 MCO     -0.082400
      7 C5          1.1260    1.1260    3.4350 c3        1 MCO      0.081000
      8 N           1.3100   -0.1450    2.7600 n         1 MCO     -0.434800
      9 C4          0.6830   -1.3100    3.1430 c         1 MCO      0.670100
     10 O1          0.9150   -2.3940    2.5660 o         1 MCO     -0.622100
     11 C2         -0.2490   -1.3030    4.3650 c3        1 MCO     -0.140700
     12 C3          0.0890   -2.4880    5.2480 c3        1 MCO     -0.084100
     13 C1         -1.6850   -1.3920    3.8820 c3        1 MCO      0.047700
     14 S          -2.3730    0.1700    3.4010 sh        1 MCO     -0.545900
     15 HC81        2.5180   -0.7420    1.1420 h1        1 MCO      0.069700
     16 HC71        3.5720    1.3510    1.5010 hc        1 MCO      0.046700
     17 HC72        2.2430    2.0000    0.4570 hc        1 MCO      0.046700
     18 HC61        1.1980    3.0020    2.3110 hc        1 MCO      0.032200
     19 HC62        2.7040    2.6410    3.2440 hc        1 MCO      0.032200
     20 HC51        1.5380    1.0540    4.4790 h1        1 MCO      0.035200
     21 HC52        0.0330    1.3970    3.5030 h1        1 MCO      0.035200
     22 HC21       -0.1270   -0.3640    4.9710 hc        1 MCO      0.063700
     23 HC31       -0.6010   -2.5290    6.1240 hc        1 MCO      0.035367
     24 HC32        1.1380   -2.4010    5.6200 hc        1 MCO      0.035367
     25 HC33        0.0000   -3.4380    4.6660 hc        1 MCO      0.035367
     26 HC11       -1.7530   -2.1180    3.0350 h1        1 MCO      0.072700
     27 HC12       -2.3410   -1.7500    4.7140 h1        1 MCO      0.072700
     28 HS1        -1.7490    0.3250    2.1890 hs        1 MCO      0.355800
@<TRIPOS>BOND
     1    1    2 1   
     2    2    3 1   
     3    2    4 1   
     4    4    5 1   
     5    4    8 1   
     6    4   15 1   
     7    5    6 1   
     8    5   16 1   
     9    5   17 1   
    10    6    7 1   
    11    6   18 1   
    12    6   19 1   
    13    7    8 1   
    14    7   20 1   
    15    7   21 1   
    16    8    9 1   
    17    9   10 2   
    18    9   11 1   
    19   11   12 1   
    20   11   13 1   
    21   11   22 1   
    22   12   23 1   
    23   12   24 1   
    24   12   25 1   
    25   13   14 1   
    26   13   26 1   
    27   13   27 1   
    28   14   28 1   
@<TRIPOS>SUBSTRUCTURE
     1 MCO         1 TEMP              0 ****  ****    0 ROOT
