@<TRIPOS>MOLECULE
molecule
   22    22     1     0     0
SMALL
bcc


@<TRIPOS>ATOM
      1 N            0.0000     0.0000     0.0000 n7         1 MCP      -0.774200
      2 C1           1.4650     0.0000     0.0000 c3         1 MCP       0.050500
      3 C2           1.9850     0.0000     1.4400 c3         1 MCP      -0.049400
      4 C3           1.5020    -1.2690     2.1470 c3         1 MCP      -0.078700
      5 C4          -0.0240    -1.3460     2.0490 c3         1 MCP      -0.067400
      6 C5          -0.4370    -1.2760     0.5780 c3         1 MCP       0.143800
      7 C6           1.9660     1.2300    -0.7110 c          1 MCP       0.889600
      8 O1           1.3130     2.2450    -0.6950 o          1 MCP      -0.841800
      9 O2           3.1380     1.1980    -1.3640 o          1 MCP      -0.841800
     10 C7           2.1210    -2.4970     1.4770 c3         1 MCP      -0.089100
     11 HN          -0.3340     0.0720    -0.9410 hn         1 MCP       0.351800
     12 H1           1.8230    -0.8860    -0.5100 h1         1 MCP       0.015700
     13 H21          1.6050     0.8700     1.9620 hc         1 MCP       0.051200
     14 H22          3.0680     0.0190     1.4330 hc         1 MCP       0.051200
     15 H3           1.7940    -1.2340     3.1900 hc         1 MCP       0.024700
     16 H41         -0.3660    -2.2810     2.4750 hc         1 MCP       0.030200
     17 H42         -0.4620    -0.5150     2.5870 hc         1 MCP       0.030200
     18 H51          0.0250    -2.0920     0.0360 h1         1 MCP       0.010200
     19 H52         -1.5150    -1.3520     0.5040 h1         1 MCP       0.010200
     20 H71          1.8510    -3.3870     2.0330 hc         1 MCP       0.027367
     21 H72          3.1990    -2.3940     1.4610 hc         1 MCP       0.027367
     22 H73          1.7510    -2.5790     0.4620 hc         1 MCP       0.027367
@<TRIPOS>BOND
     1     1     2 1
     2     1     6 1
     3     1    11 1
     4     2     3 1
     5     2     7 1
     6     2    12 1
     7     3     4 1
     8     3    13 1
     9     3    14 1
    10     4     5 1
    11     4    10 1
    12     4    15 1
    13     5     6 1
    14     5    16 1
    15     5    17 1
    16     6    18 1
    17     6    19 1
    18     7     8 1
    19     7     9 1
    20    10    20 1
    21    10    21 1
    22    10    22 1
@<TRIPOS>SUBSTRUCTURE
     1 MCP         1 TEMP              0 ****  ****    0 ROOT
