@<TRIPOS>MOLECULE
molecule
   53    54     1     0     0
SMALL
bcc


@<TRIPOS>ATOM
      1 C3           0.0000     0.0000     0.0000 c          1 MCQ       0.861600
      2 O3           1.3430     0.0000     0.0000 o          1 MCQ      -0.811300
      3 CA3         -0.7530     0.0000     1.3050 c3         1 MCQ      -0.029000
      4 N3          -2.1930    -0.0000     1.0370 n          1 MCQ      -0.357300
      5 C1          -2.9540    -1.1250     0.8720 c2         1 MCQ       0.429900
      6 CA1         -2.3970    -2.5220     0.9460 c3         1 MCQ       0.108200
      7 CB1         -2.5920    -3.0770     2.3580 c3         1 MCQ      -0.091400
      8 CG1         -1.9170    -4.4450     2.4680 c3         1 MCQ      -0.020300
      9 SD          -2.1500    -5.1020     4.1430 ss         1 MCQ      -0.304200
     10 CE          -1.2940    -6.7000     4.0780 c3         1 MCQ       0.000000
     11 N1          -3.0980    -3.3810    -0.0180 nz         1 MCQ      -0.801600
     12 C2          -2.9540     1.1100     0.9260 c          1 MCQ       0.699500
     13 O2          -2.5960     2.2640     1.0200 o          1 MCQ      -0.538500
     14 CA2         -4.3540     0.5960     0.6520 c3         1 MCQ       0.044500
     15 N2          -4.1950    -0.8670     0.6480 n2         1 MCQ      -0.691900
     16 CB2         -4.8540     1.0910    -0.7060 c3         1 MCQ       0.089700
     17 CG2         -6.2440     0.5660    -0.9520 ca         1 MCQ      -0.107300
     18 CD2         -6.4720    -0.7970    -0.9820 ca         1 MCQ      -0.097000
     19 CD1         -7.2910     1.4480    -1.1410 ca         1 MCQ      -0.097000
     20 CE1         -8.5680     0.9700    -1.3670 ca         1 MCQ      -0.157500
     21 CZ          -8.7980    -0.3970    -1.4030 ca         1 MCQ       0.113100
     22 CE2         -7.7470    -1.2810    -1.2080 ca         1 MCQ      -0.157500
     23 OH         -10.0530    -0.8700    -1.6240 oh         1 MCQ      -0.522100
     24 S2          -3.7430     0.4940    -2.0120 ss         1 MCQ      -0.294200
     25 C21         -4.3970     1.2960    -3.5010 c3         1 MCQ       0.008700
     26 C11         -3.5550     0.8870    -4.7120 c3         1 MCQ       0.155400
     27 O1          -4.0700     1.5190    -5.8850 oh         1 MCQ      -0.613800
     28 H2          -0.4910    -0.8840     1.8740 h1         1 MCQ       0.063200
     29 H3          -0.4920     0.8850     1.8730 h1         1 MCQ       0.063200
     30 H5          -3.6510    -3.1790     2.5620 hc         1 MCQ       0.100200
     31 H6          -2.1500    -2.3970     3.0760 hc         1 MCQ       0.100200
     32 H7          -0.8580    -4.3430     2.2640 h1         1 MCQ       0.053700
     33 H8          -2.3590    -5.1250     1.7490 h1         1 MCQ       0.053700
     34 H9          -0.2560    -6.5430     3.8100 h1         1 MCQ       0.068367
     35 H10         -1.7670    -7.3320     3.3360 h1         1 MCQ       0.068367
     36 H11         -1.3490    -7.1780     5.0480 h1         1 MCQ       0.068367
     37 H12         -3.9700    -3.6790     0.3720 hn         1 MCQ       0.459800
     38 H13         -4.8700     2.1740    -0.7130 h1         1 MCQ       0.098700
     39 H14         -5.6100    -1.4350    -0.8300 ha         1 MCQ       0.139500
     40 H15         -7.1120     2.5160    -1.1060 ha         1 MCQ       0.139500
     41 H16         -9.3770     1.6620    -1.5680 ha         1 MCQ       0.139500
     42 H17         -7.9180    -2.3490    -1.2720 ha         1 MCQ       0.139500
     43 H18        -10.5180    -0.9220    -0.8050 ho         1 MCQ       0.420000
     44 H19         -4.3570     2.3720    -3.3800 h1         1 MCQ       0.071700
     45 H20         -5.4250     0.9890    -3.6560 h1         1 MCQ       0.071700
     46 H21         -3.5960    -0.1890    -4.8340 h1         1 MCQ       0.037200
     47 H22         -2.5280     1.1940    -4.5580 h1         1 MCQ       0.037200
     48 H23         -3.5090     1.3260    -6.6180 ho         1 MCQ       0.408000
     49 OXT         -0.6040    -0.0110    -1.0470 o          1 MCQ      -0.811300
     50 H1          -1.3400    -2.5020     0.7090 hx         1 MCQ       0.154700
     51 HXT         -3.2670    -2.8680    -0.8610 hn         1 MCQ       0.459800
     52 H24         -5.0290     0.8980     1.4440 h1         1 MCQ       0.116700
     53 H131        -2.5340    -4.1830    -0.2230 hn         1 MCQ       0.459800
@<TRIPOS>BOND
     1    13    12 2
     2    25    26 1
     3    25    24 1
     4    26    27 1
     5    18    22 ar
     6    18    17 ar
     7    22    21 ar
     8    16    17 1
     9    16    24 1
    10    16    14 1
    11    12    14 1
    12    12     4 1
    13    17    19 ar
    14     3     4 1
    15     3     1 1
    16    14    15 1
    17     2     1 1
    18     4     5 1
    19    21    23 1
    20    21    20 ar
    21    19    20 ar
    22    15     5 2
    23     5     6 1
    24     6    11 1
    25     6     7 1
    26     7     8 1
    27     8     9 1
    28     9    10 1
    29     3    28 1
    30     3    29 1
    31     7    30 1
    32     7    31 1
    33     8    32 1
    34     8    33 1
    35    10    34 1
    36    10    35 1
    37    10    36 1
    38    11    37 1
    39    16    38 1
    40    18    39 1
    41    19    40 1
    42    20    41 1
    43    22    42 1
    44    23    43 1
    45    25    44 1
    46    25    45 1
    47    26    46 1
    48    26    47 1
    49    27    48 1
    50     1    49 1
    51     6    50 1
    52    11    51 1
    53    14    52 1
    54    53    11 1
@<TRIPOS>SUBSTRUCTURE
     1 MCQ         1 TEMP              0 ****  ****    0 ROOT
