@<TRIPOS>MOLECULE
MCQ
   53    54     1     0     0
SMALL
bcc


@<TRIPOS>ATOM
      1 C3           0.0000     0.0000     0.0000 c          1 MCQ       0.945600
      2 O3           1.3430     0.0000     0.0000 o          1 MCQ      -0.856800
      3 CA3         -0.7530     0.0000     1.3050 c3         1 MCQ      -0.104000
      4 N3          -2.1930    -0.0000     1.0370 n          1 MCQ       0.068700
      5 C1          -2.9540    -1.1250     0.8720 c2         1 MCQ       0.291900
      6 CA1         -2.3970    -2.5220     0.9460 c3         1 MCQ      -0.076800
      7 CB1         -2.5920    -3.0770     2.3580 c3         1 MCQ      -0.021400
      8 CG1         -1.9170    -4.4450     2.4680 c3         1 MCQ       0.046700
      9 SD          -2.1500    -5.1020     4.1430 ss         1 MCQ      -0.361200
     10 CE          -1.2940    -6.7000     4.0780 c3         1 MCQ       0.125000
     11 N1          -3.0980    -3.3810    -0.0180 nz         1 MCQ       0.071400
     12 C2          -2.9540     1.1100     0.9260 c          1 MCQ       0.608500
     13 O2          -2.5960     2.2640     1.0200 o          1 MCQ      -0.565500
     14 CA2         -4.3540     0.5960     0.6520 c3         1 MCQ       0.071500
     15 N2          -4.1950    -0.8670     0.6480 n2         1 MCQ      -0.671900
     16 CB2         -4.8540     1.0910    -0.7060 c3         1 MCQ       0.142700
     17 CG2         -6.2440     0.5660    -0.9520 ca         1 MCQ      -0.127300
     18 CD2         -6.4720    -0.7970    -0.9820 ca         1 MCQ      -0.067500
     19 CD1         -7.2910     1.4480    -1.1410 ca         1 MCQ      -0.067500
     20 CE1         -8.5680     0.9700    -1.3670 ca         1 MCQ      -0.141500
     21 CZ          -8.7980    -0.3970    -1.4030 ca         1 MCQ       0.133100
     22 CE2         -7.7470    -1.2810    -1.2080 ca         1 MCQ      -0.141500
     23 OH         -10.0530    -0.8700    -1.6240 oh         1 MCQ      -0.501100
     24 S2          -3.7430     0.4940    -2.0120 ss         1 MCQ      -0.376200
     25 C21         -4.3970     1.2960    -3.5010 c3         1 MCQ       0.081700
     26 C11         -3.5550     0.8870    -4.7120 c3         1 MCQ       0.242400
     27 O1          -4.0700     1.5190    -5.8850 oh         1 MCQ      -0.597800
     28 H2          -0.4910    -0.8840     1.8740 h1         1 MCQ       0.040700
     29 H3          -0.4920     0.8850     1.8730 h1         1 MCQ       0.040700
     30 H5          -3.6510    -3.1790     2.5620 hc         1 MCQ       0.066700
     31 H6          -2.1500    -2.3970     3.0760 hc         1 MCQ       0.066700
     32 H7          -0.8580    -4.3430     2.2640 h1         1 MCQ       0.030700
     33 H8          -2.3590    -5.1250     1.7490 h1         1 MCQ       0.030700
     34 H9          -0.2560    -6.5430     3.8100 h1         1 MCQ       0.037367
     35 H10         -1.7670    -7.3320     3.3360 h1         1 MCQ       0.037367
     36 H11         -1.3490    -7.1780     5.0480 h1         1 MCQ       0.037367
     37 H12         -3.9700    -3.6790     0.3720 hn         1 MCQ       0.231133
     38 H13         -4.8700     2.1740    -0.7130 h1         1 MCQ       0.072700
     39 H14         -5.6100    -1.4350    -0.8300 ha         1 MCQ       0.115500
     40 H15         -7.1120     2.5160    -1.1060 ha         1 MCQ       0.115500
     41 H16         -9.3770     1.6620    -1.5680 ha         1 MCQ       0.113000
     42 H17         -7.9180    -2.3490    -1.2720 ha         1 MCQ       0.113000
     43 H18        -10.5180    -0.9220    -0.8050 ho         1 MCQ       0.404000
     44 H19         -4.3570     2.3720    -3.3800 h1         1 MCQ       0.044700
     45 H20         -5.4250     0.9890    -3.6560 h1         1 MCQ       0.044700
     46 H21         -3.5960    -0.1890    -4.8340 h1         1 MCQ       0.002700
     47 H22         -2.5280     1.1940    -4.5580 h1         1 MCQ       0.002700
     48 H23         -3.5090     1.3260    -6.6180 ho         1 MCQ       0.396000
     49 OXT         -0.6040    -0.0110    -1.0470 o          1 MCQ      -0.856800
     50 H1          -1.3400    -2.5020     0.7090 hx         1 MCQ       0.126700
     51 HXT         -3.2670    -2.8680    -0.8610 hn         1 MCQ       0.231133
     52 H24         -5.0290     0.8980     1.4440 h1         1 MCQ       0.074700
     53 H131        -2.5340    -4.1830    -0.2230 hn         1 MCQ       0.231133
@<TRIPOS>BOND
     1     1     2 1   
     2     1     3 1   
     3     1    49 1   
     4     3     4 1   
     5     3    28 1   
     6     3    29 1   
     7     4     5 1   
     8     4    12 1   
     9     5     6 1   
    10     5    15 2   
    11     6     7 1   
    12     6    11 1   
    13     6    50 1   
    14     7     8 1   
    15     7    30 1   
    16     7    31 1   
    17     8     9 1   
    18     8    32 1   
    19     8    33 1   
    20     9    10 1   
    21    10    34 1   
    22    10    35 1   
    23    10    36 1   
    24    11    37 1   
    25    11    51 1   
    26    11    53 1   
    27    12    13 2   
    28    12    14 1   
    29    14    15 1   
    30    14    16 1   
    31    14    52 1   
    32    16    17 1   
    33    16    24 1   
    34    16    38 1   
    35    17    18 ar  
    36    17    19 ar  
    37    18    22 ar  
    38    18    39 1   
    39    19    20 ar  
    40    19    40 1   
    41    20    21 ar  
    42    20    41 1   
    43    21    22 ar  
    44    21    23 1   
    45    22    42 1   
    46    23    43 1   
    47    24    25 1   
    48    25    26 1   
    49    25    44 1   
    50    25    45 1   
    51    26    27 1   
    52    26    46 1   
    53    26    47 1   
    54    27    48 1   
@<TRIPOS>SUBSTRUCTURE
     1 MCQ         1 TEMP              0 ****  ****    0 ROOT
