@<TRIPOS>MOLECULE
MCR
    8     7     1     0     0
SMALL
bcc


@<TRIPOS>ATOM
      1 O1          0.1630   -0.5500   -0.0370 o         1 MCR     -0.827300
      2 C1          1.3010   -0.0060   -0.0070 c         1 MCR      0.928600
      3 O2          1.8140    0.5280    1.0150 o         1 MCR     -0.827300
      4 C2          2.0860    0.0890   -1.3350 c3        1 MCR     -0.104300
      5 S2          3.1440   -1.3160   -1.5510 sh        1 MCR     -0.386900
      6 H21         2.6970    1.0190   -1.3200 h1        1 MCR      0.038700
      7 H22         1.3560    0.1390   -2.1740 h1        1 MCR      0.038700
      8 HS2         3.6650   -0.9840   -2.7150 hs        1 MCR      0.140800
@<TRIPOS>BOND
     1    1    2 1   
     2    2    3 1   
     3    2    4 1   
     4    4    5 1   
     5    4    6 1   
     6    4    7 1   
     7    5    8 1   
@<TRIPOS>SUBSTRUCTURE
     1 MCR         1 TEMP              0 ****  ****    0 ROOT
