@<TRIPOS>MOLECULE
molecule
    8     7     1     0     0
SMALL
bcc


@<TRIPOS>ATOM
      1 O1           0.0000     0.0000     0.0000 o          1 MCR      -0.831300
      2 C1           1.3570     0.0000     0.0000 c          1 MCR       0.907600
      3 O2           2.0300     0.0000     1.0230 o          1 MCR      -0.831300
      4 C2           1.9360     0.0170    -1.3860 c3         1 MCR      -0.038300
      5 S2           3.5390    -0.8120    -1.3760 sh         1 MCR      -0.439900
      6 H21          1.2670    -0.4980    -2.0640 h1         1 MCR       0.043700
      7 H22          2.0620     1.0430    -1.7130 h1         1 MCR       0.043700
      8 HS2          4.0320    -0.8360    -2.6090 hs         1 MCR       0.145800
@<TRIPOS>BOND
     1     1     2 1
     2     2     3 1
     3     2     4 1
     4     4     5 1
     5     4     6 1
     6     4     7 1
     7     5     8 1
@<TRIPOS>SUBSTRUCTURE
     1 MCR         1 TEMP              0 ****  ****    0 ROOT
