@<TRIPOS>MOLECULE
MCT
   17    17     1     0     0
SMALL
bcc


@<TRIPOS>ATOM
      1 C1         -0.0350    0.0560    0.0090 ca        1 MCT     -0.077300
      2 C2          1.3570    0.1950    0.0650 ca        1 MCT     -0.171000
      3 C3          2.0030    0.2050    1.3030 ca        1 MCT      0.042100
      4 O3          3.3700    0.3370    1.4450 oh        1 MCT     -0.518100
      5 C4          1.2630    0.0750    2.4980 ca        1 MCT      0.106100
      6 O4          1.8460    0.0770    3.7420 oh        1 MCT     -0.495100
      7 C5         -0.1300   -0.0650    2.4350 ca        1 MCT     -0.130000
      8 C6         -0.7650   -0.0740    1.1960 ca        1 MCT     -0.127000
      9 C          -0.7270    0.0620   -1.3000 c3        1 MCT     -0.050800
     10 H2          1.9410    0.2960   -0.8610 ha        1 MCT      0.134000
     11 HO3         3.7520    0.4140    0.5600 ho        1 MCT      0.428000
     12 HO4         2.8030    0.1790    3.6230 ho        1 MCT      0.436000
     13 H5         -0.7010   -0.1670    3.3680 ha        1 MCT      0.153000
     14 H6         -1.8590   -0.1850    1.1510 ha        1 MCT      0.136000
     15 H1         -0.0780   -0.3760   -2.0990 hc        1 MCT      0.044367
     16 H2A        -1.6750   -0.5280   -1.2530 hc        1 MCT      0.044367
     17 H3         -0.9820    1.1120   -1.5930 hc        1 MCT      0.044367
@<TRIPOS>BOND
     1    1    2 ar  
     2    1    8 ar  
     3    1    9 1   
     4    2    3 ar  
     5    2   10 1   
     6    3    4 1   
     7    3    5 ar  
     8    4   11 1   
     9    5    6 1   
    10    5    7 ar  
    11    6   12 1   
    12    7    8 ar  
    13    7   13 1   
    14    8   14 1   
    15    9   15 1   
    16    9   16 1   
    17    9   17 1   
@<TRIPOS>SUBSTRUCTURE
     1 MCT         1 TEMP              0 ****  ****    0 ROOT
