@<TRIPOS>MOLECULE
molecule
   17    17     1     0     0
SMALL
bcc


@<TRIPOS>ATOM
      1 C1           0.0000     0.0000     0.0000 ca         1 MCT      -0.077300
      2 C2           1.3820     0.0000     0.0000 ca         1 MCT      -0.155000
      3 C3           2.0740     0.0000     1.2000 ca         1 MCT       0.095100
      4 O3           3.4340     0.0060     1.2020 oh         1 MCT      -0.511100
      5 C4           1.3760    -0.0110     2.4020 ca         1 MCT       0.085100
      6 O4           2.0510    -0.0170     3.5830 oh         1 MCT      -0.511100
      7 C5          -0.0100    -0.0180     2.3950 ca         1 MCT      -0.148000
      8 C6          -0.6940    -0.0120     1.1950 ca         1 MCT      -0.125000
      9 C           -0.7520     0.0050    -1.3060 c3         1 MCT      -0.047800
     10 H2           1.9240     0.0090    -0.9380 ha         1 MCT       0.142000
     11 HO3          3.7450     0.8590     0.9470 ho         1 MCT       0.422000
     12 HO4          2.0170    -0.8800     3.9600 ho         1 MCT       0.421000
     13 H5          -0.5570    -0.0270     3.3310 ha         1 MCT       0.142000
     14 H6          -1.7770    -0.0150     1.1900 ha         1 MCT       0.135000
     15 H1          -1.8130    -0.0990    -1.1120 hc         1 MCT       0.045033
     16 H2A         -0.4150    -0.8220    -1.9200 hc         1 MCT       0.045033
     17 H3          -0.5690     0.9380    -1.8250 hc         1 MCT       0.045033
@<TRIPOS>BOND
     1     1     2 ar
     2     1     8 ar
     3     1     9 1
     4     2     3 ar
     5     2    10 1
     6     3     4 1
     7     3     5 ar
     8     4    11 1
     9     5     6 1
    10     5     7 ar
    11     6    12 1
    12     7     8 ar
    13     7    13 1
    14     8    14 1
    15     9    15 1
    16     9    16 1
    17     9    17 1
@<TRIPOS>SUBSTRUCTURE
     1 MCT         1 TEMP              0 ****  ****    0 ROOT
