@<TRIPOS>MOLECULE
MCV
   41    43     1     0     0
SMALL
bcc


@<TRIPOS>ATOM
      1 N1           0.0000     0.0000     0.0000 nb         1 MCV      -0.655000
      2 C2           1.3270     0.0000     0.0000 ca         1 MCV       0.723900
      3 N3           2.0270     0.0000     1.1200 nb         1 MCV      -0.590000
      4 C4           1.4180     0.0000     2.3120 ca         1 MCV       0.523600
      5 C5           0.0210    -0.0000     2.3640 ca         1 MCV      -0.326400
      6 C6          -0.6840    -0.0000     1.1330 ca         1 MCV       0.584200
      7 CAA         -7.5350    -1.9370     7.4340 c3         1 MCV       0.244700
      8 CAB         -5.4930    -0.6530     1.0920 c3         1 MCV       0.237700
      9 NAC          1.9990    -0.0000    -1.2120 nv         1 MCV      -0.637500
     10 NAD         -2.0670    -0.0010     1.1180 nv         1 MCV      -0.655500
     11 CAE         -6.6530    -1.4350     4.9290 ca         1 MCV      -0.171000
     12 CAF         -6.2380    -1.1730     3.6380 ca         1 MCV      -0.160000
     13 CAG          0.4670    -0.0010     4.6560 cc         1 MCV      -0.022400
     14 CAH         -4.3650    -1.6950     5.6120 ca         1 MCV      -0.102000
     15 CAI         -2.4800    -1.4320     3.9890 c3         1 MCV       0.036900
     16 SAO          2.0690     0.0000     3.9450 ss         1 MCV      -0.292900
     17 CAP         -5.7170    -1.6960     5.9190 ca         1 MCV       0.118100
     18 CAR         -3.9490    -1.4330     4.3220 ca         1 MCV      -0.087300
     19 CAT         -0.4710    -0.0010     3.7300 cd         1 MCV      -0.050400
     20 CAU         -4.8850    -1.1710     3.3320 ca         1 MCV       0.111100
     21 HAA         -7.7230    -2.1550     8.4780 h1         1 MCV      -0.003300
     22 HAAA        -7.9320    -0.9590     7.1920 h1         1 MCV      -0.003300
     23 HAAB        -8.0170    -2.6850     6.8160 h1         1 MCV      -0.003300
     24 HAB         -6.0370     0.2410     1.3720 h1         1 MCV      -0.000300
     25 HABA        -6.1780    -1.4900     1.0360 h1         1 MCV      -0.000300
     26 HABB        -5.0250    -0.5040     0.1260 h1         1 MCV      -0.000300
     27 HNAC         2.2130    -0.8660    -1.6650 hn         1 MCV       0.279800
     28 HNAA         2.2710     0.8660    -1.6330 hn         1 MCV       0.279800
     29 HNAD        -2.5690     0.8490     1.2820 hn         1 MCV       0.292300
     30 HNAB        -2.5630    -0.8340     0.8690 hn         1 MCV       0.292300
     31 HAE         -7.7100    -1.4360     5.1680 ha         1 MCV       0.120000
     32 HAF         -6.9680    -0.9690     2.8640 ha         1 MCV       0.119000
     33 HAG          0.2720    -0.0020     5.7220 h4         1 MCV       0.154000
     34 HAH         -3.6340    -1.8980     6.3860 ha         1 MCV       0.121000
     35 HAI         -1.9480    -2.0550     4.6990 hc         1 MCV       0.027200
     36 HAIA        -2.3350    -1.8220     2.9890 hc         1 MCV       0.027200
     37 HAJ         -2.0850     0.3870     5.0640 hc         1 MCV       0.027700
     38 HAJA        -2.4720     0.6210     3.3530 hc         1 MCV       0.027700
     39 CAJ         -1.9410    -0.0020     4.0630 c3         1 MCV       0.033800
     40 OAM         -6.1270    -1.9540     7.1900 os         1 MCV      -0.307900
     41 OAN         -4.4750    -0.9140     2.0610 os         1 MCV      -0.314900
@<TRIPOS>BOND
     1     1     2 ar  
     2     1     6 ar  
     3     2     3 ar  
     4     2     9 1   
     5     3     4 ar  
     6     4     5 ar  
     7     4    16 1   
     8     5     6 ar  
     9     5    19 1   
    10     6    10 1   
    11     7    21 1   
    12     7    22 1   
    13     7    23 1   
    14     7    40 1   
    15     8    24 1   
    16     8    25 1   
    17     8    26 1   
    18     8    41 1   
    19     9    27 1   
    20     9    28 1   
    21    10    29 1   
    22    10    30 1   
    23    11    12 ar  
    24    11    17 ar  
    25    11    31 1   
    26    12    20 ar  
    27    12    32 1   
    28    13    16 1   
    29    13    19 2   
    30    13    33 1   
    31    14    17 ar  
    32    14    18 ar  
    33    14    34 1   
    34    15    18 1   
    35    15    35 1   
    36    15    36 1   
    37    15    39 1   
    38    17    40 1   
    39    18    20 ar  
    40    19    39 1   
    41    20    41 1   
    42    37    39 1   
    43    38    39 1   
@<TRIPOS>SUBSTRUCTURE
     1 MCV         1 TEMP              0 ****  ****    0 ROOT
