@<TRIPOS>MOLECULE
molecule
   16    16     1     0     0
SMALL
bcc


@<TRIPOS>ATOM
      1 C7           0.0000     0.0000     0.0000 c3         1 MCW       0.121700
      2 O3           1.4290     0.0000     0.0000 os         1 MCW      -0.292900
      3 C6           2.0440     0.0000     1.2060 cc         1 MCW       0.080900
      4 C5           1.3110    -0.0000     2.3390 cd         1 MCW      -0.342200
      5 C3           1.9800    -0.0000     3.6450 c          1 MCW       0.561500
      6 O1           1.3180    -0.0010     4.6650 o          1 MCW      -0.504100
      7 C1           3.4560    -0.0000     3.7240 cc         1 MCW      -0.173200
      8 C2           4.1910     0.0000     2.6040 cd         1 MCW      -0.191200
      9 C4           3.5260    -0.0060     1.2860 c          1 MCW       0.561500
     10 O2           4.1900    -0.0100     0.2700 o          1 MCW      -0.464100
     11 H7          -0.3610     0.8860     0.5070 h1         1 MCW       0.050700
     12 H7A         -0.3610    -0.0040    -1.0210 h1         1 MCW       0.050700
     13 H7B         -0.3610    -0.8830     0.5140 h1         1 MCW       0.050700
     14 H5           0.2290     0.0150     2.2850 ha         1 MCW       0.164000
     15 H1           3.9450     0.0020     4.6900 ha         1 MCW       0.161000
     16 H2           5.2730    -0.0020     2.6660 ha         1 MCW       0.166000
@<TRIPOS>BOND
     1     1     2 1
     2     2     3 1
     3     3     4 2
     4     3     9 1
     5     4     5 1
     6     5     6 2
     7     5     7 1
     8     7     8 2
     9     8     9 1
    10     9    10 2
    11     1    11 1
    12     1    12 1
    13     1    13 1
    14     4    14 1
    15     7    15 1
    16     8    16 1
@<TRIPOS>SUBSTRUCTURE
     1 MCW         1 TEMP              0 ****  ****    0 ROOT
