@<TRIPOS>MOLECULE
MCW
   16    16     1     0     0
SMALL
bcc


@<TRIPOS>ATOM
      1 C7          0.0330   -0.0080   -0.0550 c3        1 MCW      0.103700
      2 O3          1.4570   -0.0080    0.0270 os        1 MCW     -0.292900
      3 C6          1.9950   -0.0030    1.2860 cc        1 MCW      0.077900
      4 C5          1.3000    0.0030    2.4430 cd        1 MCW     -0.325200
      5 C3          1.9760    0.0080    3.7440 c         1 MCW      0.561500
      6 O1          1.3530    0.0130    4.8130 o         1 MCW     -0.506100
      7 C1          3.4570    0.0080    3.7140 cc        1 MCW     -0.171200
      8 C2          4.1470    0.0030    2.5680 cd        1 MCW     -0.195200
      9 C4          3.4920   -0.0030    1.2440 c         1 MCW      0.555500
     10 O2          4.1280   -0.0080    0.1900 o         1 MCW     -0.460100
     11 H7         -0.3860    0.9130    0.4190 h1        1 MCW      0.054700
     12 H7A        -0.1590   -0.0120   -1.1580 h1        1 MCW      0.054700
     13 H7B        -0.3860   -0.9240    0.4270 h1        1 MCW      0.054700
     14 H5          0.1990    0.0030    2.4750 ha        1 MCW      0.163000
     15 H1          3.9540    0.0130    4.6990 ha        1 MCW      0.161000
     16 H2          5.2500    0.0030    2.5440 ha        1 MCW      0.163000
@<TRIPOS>BOND
     1    1    2 1   
     2    1   11 1   
     3    1   12 1   
     4    1   13 1   
     5    2    3 1   
     6    3    4 2   
     7    3    9 1   
     8    4    5 1   
     9    4   14 1   
    10    5    6 2   
    11    5    7 1   
    12    7    8 2   
    13    7   15 1   
    14    8    9 1   
    15    8   16 1   
    16    9   10 2   
@<TRIPOS>SUBSTRUCTURE
     1 MCW         1 TEMP              0 ****  ****    0 ROOT
