@<TRIPOS>MOLECULE
molecule
   72    74     1     0     0
SMALL
bcc


@<TRIPOS>ATOM
      1 C1           0.0000     0.0000     0.0000 c3         1 MCZ       0.189300
      2 O1          -0.4810     1.1890     0.6310 oh         1 MCZ      -0.598800
      3 C2           1.5320     0.0000     0.0000 c3         1 MCZ      -0.098400
      4 C3           2.0520     0.0000     1.4390 c3         1 MCZ       0.152100
      5 O3           3.4730     0.1480     1.4310 oh         1 MCZ      -0.610800
      6 C4           1.6800    -1.3190     2.1250 c3         1 MCZ      -0.042200
      7 C5           0.1740    -1.4780     2.0700 ce         1 MCZ      -0.079200
      8 C6          -0.5390    -1.8420     3.1570 cf         1 MCZ      -0.121000
      9 C7          -1.9940    -1.9850     3.0650 cf         1 MCZ      -0.158000
     10 C8          -2.6970    -2.3440     4.1380 c2         1 MCZ      -0.096400
     11 C9          -2.0450    -2.6190     5.4850 c3         1 MCZ      -0.044200
     12 C10         -0.4770    -1.2150     0.7700 ce         1 MCZ      -0.090200
     13 C11         -2.7550    -1.8470     6.5960 c3         1 MCZ      -0.079400
     14 C12         -4.2800    -2.0240     6.5290 c3         1 MCZ      -0.065400
     15 C13         -4.7380    -1.5260     5.1780 c3         1 MCZ      -0.060000
     16 C14         -4.1880    -2.5010     4.1060 c3         1 MCZ      -0.032500
     17 C15         -4.9050    -1.9960     2.8520 c3         1 MCZ      -0.083400
     18 C16         -6.3470    -1.7240     3.3660 c3         1 MCZ      -0.073400
     19 C17         -6.2300    -1.4940     4.8870 c3         1 MCZ      -0.054700
     20 C18         -4.1570    -0.1320     4.9300 c3         1 MCZ      -0.096100
     21 C19         -1.4380    -2.0080     0.2960 c2         1 MCZ      -0.210000
     22 C20         -6.8130    -0.1270     5.2510 c3         1 MCZ       0.145100
     23 C21         -6.7330     0.0750     6.7660 c3         1 MCZ      -0.120100
     24 O22         -8.1790    -0.0650     4.8340 os         1 MCZ      -0.434600
     25 C23         -8.6220     1.2490     4.4870 c3         1 MCZ       0.138400
     26 C24        -10.0900     1.1950     4.0580 c3         1 MCZ      -0.064400
     27 C25        -10.5640     2.6020     3.6870 c3         1 MCZ       0.147800
     28 C26         -9.7140     3.1380     2.5320 c3         1 MCZ      -0.120600
     29 C27        -12.0320     2.5480     3.2580 c3         1 MCZ      -0.120600
     30 O28        -10.4290     3.4640     4.8180 oh         1 MCZ      -0.604800
     31 H1          -0.3630    -0.0500    -1.0190 h1         1 MCZ       0.037700
     32 HO1         -1.0130     1.6740     0.0220 ho         1 MCZ       0.400000
     33 H2           1.8910     0.8860    -0.5100 hc         1 MCZ       0.056700
     34 H2A          1.8910    -0.8860    -0.5110 hc         1 MCZ       0.056700
     35 H3           1.6030     0.8240     1.9810 h1         1 MCZ       0.053700
     36 HO3          3.7070     0.9530     1.8610 ho         1 MCZ       0.402000
     37 H4           2.1520    -2.1440     1.6060 hc         1 MCZ       0.057700
     38 H4A          2.0060    -1.2960     3.1580 hc         1 MCZ       0.057700
     39 H6          -0.0350    -2.0280     4.0980 ha         1 MCZ       0.134000
     40 H7          -2.4980    -1.7980     2.1240 ha         1 MCZ       0.146000
     41 H9          -1.0070    -2.3130     5.4470 hc         1 MCZ       0.049200
     42 H9A         -2.1010    -3.6800     5.6970 hc         1 MCZ       0.049200
     43 H11         -2.4020    -2.2080     7.5550 hc         1 MCZ       0.044200
     44 H11A        -2.5170    -0.7950     6.5000 hc         1 MCZ       0.044200
     45 H12         -4.7510    -1.4420     7.3120 hc         1 MCZ       0.046200
     46 H12A        -4.5330    -3.0710     6.6380 hc         1 MCZ       0.046200
     47 H14         -4.4760    -3.5200     4.3320 hc         1 MCZ       0.067700
     48 H15         -4.4490    -1.0810     2.4930 hc         1 MCZ       0.047700
     49 H15A        -4.9120    -2.7580     2.0830 hc         1 MCZ       0.047700
     50 H16         -6.9780    -2.5820     3.1690 hc         1 MCZ       0.048200
     51 H16A        -6.7500    -0.8400     2.8880 hc         1 MCZ       0.048200
     52 H17         -6.7360    -2.2840     5.4280 hc         1 MCZ       0.064700
     53 H18         -4.4930     0.2330     3.9670 hc         1 MCZ       0.041700
     54 H18A        -4.4920     0.5430     5.7080 hc         1 MCZ       0.041700
     55 H18B        -3.0750    -0.1850     4.9390 hc         1 MCZ       0.041700
     56 H19         -1.8980    -1.7910    -0.6600 ha         1 MCZ       0.121500
     57 H19A        -1.7600    -2.8700     0.8680 ha         1 MCZ       0.121500
     58 H20         -6.2480     0.6510     4.7530 h1         1 MCZ       0.044700
     59 H21         -7.6070     0.6170     7.1050 hc         1 MCZ       0.042033
     60 H21A        -5.8410     0.6400     7.0080 hc         1 MCZ       0.042033
     61 H21B        -6.6930    -0.8900     7.2570 hc         1 MCZ       0.042033
     62 H23         -8.0210     1.6290     3.6700 h1         1 MCZ       0.031700
     63 H23A        -8.5200     1.9020     5.3450 h1         1 MCZ       0.031700
     64 H24        -10.6910     0.8150     4.8750 hc         1 MCZ       0.059200
     65 H24A       -10.1920     0.5410     3.2000 hc         1 MCZ       0.059200
     66 H26         -9.5270     2.3420     1.8210 hc         1 MCZ       0.043200
     67 H26A        -8.7710     3.5060     2.9190 hc         1 MCZ       0.043200
     68 H26B       -10.2420     3.9450     2.0400 hc         1 MCZ       0.043200
     69 H27        -12.6360     2.1930     4.0840 hc         1 MCZ       0.043200
     70 H27A       -12.1380     1.8730     2.4170 hc         1 MCZ       0.043200
     71 H27B       -12.3600     3.5390     2.9700 hc         1 MCZ       0.043200
     72 HO28       -10.9790     4.2220     4.7030 ho         1 MCZ       0.403000
@<TRIPOS>BOND
     1     1     2 1
     2     1     3 1
     3     1    12 1
     4     3     4 1
     5     4     5 1
     6     4     6 1
     7     6     7 1
     8     7     8 2
     9     7    12 1
    10     8     9 1
    11     9    10 2
    12    10    11 1
    13    10    16 1
    14    11    13 1
    15    12    21 2
    16    13    14 1
    17    14    15 1
    18    15    16 1
    19    15    19 1
    20    15    20 1
    21    16    17 1
    22    17    18 1
    23    18    19 1
    24    19    22 1
    25    22    23 1
    26    22    24 1
    27    24    25 1
    28    25    26 1
    29    26    27 1
    30    27    28 1
    31    27    29 1
    32    27    30 1
    33     1    31 1
    34     2    32 1
    35     3    33 1
    36     3    34 1
    37     4    35 1
    38     5    36 1
    39     6    37 1
    40     6    38 1
    41     8    39 1
    42     9    40 1
    43    11    41 1
    44    11    42 1
    45    13    43 1
    46    13    44 1
    47    14    45 1
    48    14    46 1
    49    16    47 1
    50    17    48 1
    51    17    49 1
    52    18    50 1
    53    18    51 1
    54    19    52 1
    55    20    53 1
    56    20    54 1
    57    20    55 1
    58    21    56 1
    59    21    57 1
    60    22    58 1
    61    23    59 1
    62    23    60 1
    63    23    61 1
    64    25    62 1
    65    25    63 1
    66    26    64 1
    67    26    65 1
    68    28    66 1
    69    28    67 1
    70    28    68 1
    71    29    69 1
    72    29    70 1
    73    29    71 1
    74    30    72 1
@<TRIPOS>SUBSTRUCTURE
     1 MCZ         1 TEMP              0 ****  ****    0 ROOT
