@<TRIPOS>MOLECULE
MCZ
   72    74     1     0     0
SMALL
bcc


@<TRIPOS>ATOM
      1 C1          0.8100   -0.6360   -0.3010 c3        1 MCZ      0.186300
      2 O1          0.3140    0.6870   -0.1120 oh        1 MCZ     -0.588800
      3 C2          2.3200   -0.7040   -0.0910 c3        1 MCZ     -0.146400
      4 C3          2.6770   -0.4760    1.3730 c3        1 MCZ      0.146100
      5 O3          4.0760   -0.6210    1.5830 oh        1 MCZ     -0.599800
      6 C4          1.9990   -1.5160    2.2620 c3        1 MCZ     -0.036200
      7 C5          0.5210   -1.5100    2.0550 ce        1 MCZ     -0.073200
      8 C6         -0.3120   -1.5030    3.1170 cf        1 MCZ     -0.109000
      9 C7         -1.7540   -1.4620    3.0390 cf        1 MCZ     -0.149000
     10 C8         -2.6030   -1.8760    3.9950 c2        1 MCZ     -0.082400
     11 C9         -2.1990   -2.5450    5.2690 c3        1 MCZ     -0.044200
     12 C10         0.0740   -1.5330    0.6630 ce        1 MCZ     -0.070200
     13 C11        -2.9210   -2.0150    6.4970 c3        1 MCZ     -0.073400
     14 C12        -4.4170   -1.8290    6.3100 c3        1 MCZ     -0.067400
     15 C13        -4.7050   -1.0210    5.0550 c3        1 MCZ     -0.041000
     16 C14        -4.0810   -1.7980    3.8610 c3        1 MCZ     -0.035500
     17 C15        -4.7330   -1.1730    2.6350 c3        1 MCZ     -0.076400
     18 C16        -6.1460   -0.8100    3.0970 c3        1 MCZ     -0.070400
     19 C17        -6.1870   -0.9610    4.6300 c3        1 MCZ     -0.059700
     20 C18        -4.1170    0.3750    5.1710 c3        1 MCZ     -0.085100
     21 C19        -0.9210   -2.3160    0.2270 c2        1 MCZ     -0.192000
     22 C20        -7.0210    0.1460    5.2730 c3        1 MCZ      0.150100
     23 C21        -7.1800   -0.0300    6.7730 c3        1 MCZ     -0.118100
     24 O22        -8.3140    0.0590    4.6520 os        1 MCZ     -0.431600
     25 C23        -8.9840    1.3160    4.5830 c3        1 MCZ      0.133400
     26 C24       -10.3970    1.0220    4.1110 c3        1 MCZ     -0.069400
     27 C25       -11.2700    2.2790    4.0880 c3        1 MCZ      0.149800
     28 C26       -10.7350    3.3180    3.1090 c3        1 MCZ     -0.124100
     29 C27       -12.6970    1.8970    3.7080 c3        1 MCZ     -0.124100
     30 O28       -11.2470    2.8060    5.4160 oh        1 MCZ     -0.599800
     31 H1          0.5810   -0.9510   -1.3630 h1        1 MCZ      0.034700
     32 HO1         0.8370    1.2600   -0.6850 ho        1 MCZ      0.396000
     33 H2          2.8240    0.0690   -0.7280 hc        1 MCZ      0.052700
     34 H2A         2.6930   -1.7100   -0.4130 hc        1 MCZ      0.052700
     35 H3          2.3530    0.5590    1.6790 h1        1 MCZ      0.048700
     36 HO3         4.5080    0.0450    1.0340 ho        1 MCZ      0.398000
     37 H4          2.4080   -2.5330    2.0130 hc        1 MCZ      0.062200
     38 H4A         2.2600   -1.3020    3.3310 hc        1 MCZ      0.062200
     39 H6          0.1240   -1.4930    4.1330 ha        1 MCZ      0.124000
     40 H7         -2.1590   -1.0350    2.1010 ha        1 MCZ      0.137000
     41 H9         -1.0940   -2.4500    5.4390 hc        1 MCZ      0.046700
     42 H9A        -2.4220   -3.6420    5.1590 hc        1 MCZ      0.046700
     43 H11        -2.7480   -2.7280    7.3470 hc        1 MCZ      0.040200
     44 H11A       -2.4660   -1.0330    6.7930 hc        1 MCZ      0.040200
     45 H12        -4.8410   -1.3120    7.2100 hc        1 MCZ      0.042200
     46 H12A       -4.9160   -2.8300    6.2330 hc        1 MCZ      0.042200
     47 H14        -4.4580   -2.8640    3.9220 hc        1 MCZ      0.054700
     48 H15        -4.7520   -1.8870    1.7770 hc        1 MCZ      0.045200
     49 H15A       -4.1800   -0.2570    2.3080 hc        1 MCZ      0.045200
     50 H16        -6.3990    0.2380    2.8010 hc        1 MCZ      0.046200
     51 H16A       -6.9070   -1.4830    2.6320 hc        1 MCZ      0.046200
     52 H17        -6.6700   -1.9430    4.8860 hc        1 MCZ      0.060700
     53 H18        -4.4660    0.8660    6.1110 hc        1 MCZ      0.038033
     54 H18A       -3.0010    0.3310    5.1860 hc        1 MCZ      0.038033
     55 H18B       -4.4270    1.0010    4.2990 hc        1 MCZ      0.038033
     56 H19        -1.2490   -2.3220   -0.8200 ha        1 MCZ      0.120000
     57 H19A       -1.4600   -3.0010    0.8950 ha        1 MCZ      0.120000
     58 H20        -6.5640    1.1520    5.0530 h1        1 MCZ      0.041700
     59 H21        -6.2460    0.2800    7.2980 hc        1 MCZ      0.042700
     60 H21A       -7.3990   -1.0960    7.0220 hc        1 MCZ      0.042700
     61 H21B       -8.0260    0.5970    7.1450 hc        1 MCZ      0.042700
     62 H23        -9.0030    1.8100    5.5910 h1        1 MCZ      0.034200
     63 H23A       -8.4430    1.9790    3.8570 h1        1 MCZ      0.034200
     64 H24       -10.3710    0.5820    3.0820 hc        1 MCZ      0.060700
     65 H24A      -10.8600    0.2680    4.8000 hc        1 MCZ      0.060700
     66 H26       -10.5850    2.8570    2.1050 hc        1 MCZ      0.043367
     67 H26A       -9.7600    3.7220    3.4740 hc        1 MCZ      0.043367
     68 H26B      -11.4550    4.1650    3.0130 hc        1 MCZ      0.043367
     69 H27       -12.7100    1.4220    2.7000 hc        1 MCZ      0.043367
     70 H27A      -13.3480    2.8040    3.6880 hc        1 MCZ      0.043367
     71 H27B      -13.1110    1.1790    4.4550 hc        1 MCZ      0.043367
     72 HO28      -11.8240    3.5790    5.4170 ho        1 MCZ      0.398000
@<TRIPOS>BOND
     1    1    2 1   
     2    1    3 1   
     3    1   12 1   
     4    1   31 1   
     5    2   32 1   
     6    3    4 1   
     7    3   33 1   
     8    3   34 1   
     9    4    5 1   
    10    4    6 1   
    11    4   35 1   
    12    5   36 1   
    13    6    7 1   
    14    6   37 1   
    15    6   38 1   
    16    7    8 2   
    17    7   12 1   
    18    8    9 1   
    19    8   39 1   
    20    9   10 2   
    21    9   40 1   
    22   10   11 1   
    23   10   16 1   
    24   11   13 1   
    25   11   41 1   
    26   11   42 1   
    27   12   21 2   
    28   13   14 1   
    29   13   43 1   
    30   13   44 1   
    31   14   15 1   
    32   14   45 1   
    33   14   46 1   
    34   15   16 1   
    35   15   19 1   
    36   15   20 1   
    37   16   17 1   
    38   16   47 1   
    39   17   18 1   
    40   17   48 1   
    41   17   49 1   
    42   18   19 1   
    43   18   50 1   
    44   18   51 1   
    45   19   22 1   
    46   19   52 1   
    47   20   53 1   
    48   20   54 1   
    49   20   55 1   
    50   21   56 1   
    51   21   57 1   
    52   22   23 1   
    53   22   24 1   
    54   22   58 1   
    55   23   59 1   
    56   23   60 1   
    57   23   61 1   
    58   24   25 1   
    59   25   26 1   
    60   25   62 1   
    61   25   63 1   
    62   26   27 1   
    63   26   64 1   
    64   26   65 1   
    65   27   28 1   
    66   27   29 1   
    67   27   30 1   
    68   28   66 1   
    69   28   67 1   
    70   28   68 1   
    71   29   69 1   
    72   29   70 1   
    73   29   71 1   
    74   30   72 1   
@<TRIPOS>SUBSTRUCTURE
     1 MCZ         1 TEMP              0 ****  ****    0 ROOT
