@<TRIPOS>MOLECULE
molecule
   34    33     1     0     0
SMALL
bcc


@<TRIPOS>ATOM
      1 C1           0.0000     0.0000     0.0000 c2         1 MD2      -0.357600
      2 C6           6.2980    -2.4100    -0.8610 c3         1 MD2       0.127800
      3 C7           8.4350    -1.7280    -1.2430 c3         1 MD2      -0.090900
      4 C11         11.8200    -2.0130     4.7470 c3         1 MD2       0.192500
      5 C12         12.3020    -4.1290     5.4620 c2         1 MD2      -0.261300
      6 C2           1.3070     0.0000     0.0000 c1         1 MD2       0.076200
      7 C3           2.6140     0.0000     0.0230 c2         1 MD2      -0.261300
      8 C4           3.3760    -1.2090    -0.4510 c3         1 MD2       0.192500
      9 N5           4.7980    -0.9640    -1.2100 n7         1 MD2      -0.767700
     10 C8           8.8850    -0.4960     0.6530 c3         1 MD2      -0.090900
     11 C9          11.0010    -1.2660     1.5510 c3         1 MD2       0.127800
     12 N10         10.1570    -2.5440     3.1860 n7         1 MD2      -0.767700
     13 C13         12.2990    -4.1360     7.1940 c1         1 MD2       0.076200
     14 C14         12.2470    -4.5850     8.8910 c2         1 MD2      -0.357600
     15 HC11        -0.5480    -0.8380    -0.4130 ha         1 MD2       0.140000
     16 HC1A        -0.4780     0.9610     0.1460 ha         1 MD2       0.140000
     17 HC61         6.1730    -2.5500     0.2060 h1         1 MD2       0.046700
     18 HC62         5.8180    -3.0700    -1.5730 h1         1 MD2       0.046700
     19 HC71         8.8390    -2.6980    -0.9780 hc         1 MD2       0.067950
     20 HC72         8.2930    -1.0320    -2.0600 hc         1 MD2       0.067950
     21 H111        11.5150    -1.4360     5.6110 h1         1 MD2       0.048200
     22 H112        12.6460    -1.6140     4.1700 h1         1 MD2       0.048200
     23 HC12        12.8580    -4.8240     4.8450 ha         1 MD2       0.168500
     24 HC3          3.2850     0.8490     0.0590 ha         1 MD2       0.168500
     25 HC41         2.7140    -1.7650    -1.1050 h1         1 MD2       0.048200
     26 HC42         3.2180    -1.7970     0.4450 h1         1 MD2       0.048200
     27 HN5          4.7160    -0.8850    -2.2040 hn         1 MD2       0.306800
     28 HC81         9.1450     0.3900     0.0880 hc         1 MD2       0.067950
     29 HC82         7.9510    -0.2090     1.1210 hc         1 MD2       0.067950
     30 HC91        11.6300    -0.3870     1.4770 h1         1 MD2       0.046700
     31 HC92        11.4750    -1.9020     0.8140 h1         1 MD2       0.046700
     32 HN10         9.3520    -2.1330     3.6160 hn         1 MD2       0.306800
     33 H141        12.0970    -3.9500     9.7560 ha         1 MD2       0.140000
     34 H142        12.4230    -5.5970     9.2350 ha         1 MD2       0.140000
@<TRIPOS>BOND
     1     1     6 2
     2     1    15 1
     3     1    16 1
     4     2     3 1
     5     2     9 1
     6     2    17 1
     7     2    18 1
     8     3    10 1
     9     3    19 1
    10     3    20 1
    11     4     5 1
    12     4    12 1
    13     4    21 1
    14     4    22 1
    15     5    13 2
    16     5    23 1
    17     6     7 2
    18     7     8 1
    19     7    24 1
    20     8     9 1
    21     8    25 1
    22     8    26 1
    23     9    27 1
    24    10    11 1
    25    10    28 1
    26    10    29 1
    27    11    12 1
    28    11    30 1
    29    11    31 1
    30    12    32 1
    31    13    14 2
    32    14    33 1
    33    14    34 1
@<TRIPOS>SUBSTRUCTURE
     1 MD2         1 TEMP              0 ****  ****    0 ROOT
