@<TRIPOS>MOLECULE
MD2
   36    34     1     0     0
SMALL
bcc


@<TRIPOS>ATOM
      1 C1       -223.6590  301.0920  650.8100 c2        1 MD2     -0.128000
      2 C6       -222.3460  299.3460  646.7990 c3        1 MD2     -0.133000
      3 C7       -222.4990  298.2630  645.7430 c3        1 MD2     -0.194000
      4 C11       679.7590 -903.6740-1954.6040 c2        1 MD2      0.138000
      5 C12       680.5810 -903.7950-1955.6940 c2        1 MD2     -0.213000
      6 C2       -223.7160  301.3720  649.5460 c1        1 MD2     -0.095000
      7 C3       -223.8230  301.6860  648.2820 c2        1 MD2     -0.225000
      8 C4       -222.6520  301.7550  647.3660 c3        1 MD2     -0.073000
      9 N5       -222.7070  300.7060  646.2940 n4        1 MD2     -0.041000
     10 C8       -221.5530  298.4380  644.5770 c3        1 MD2     -0.170000
     11 C9       -221.5620  297.2080  643.6630 c3        1 MD2     -0.069000
     12 N10      -221.0550  296.0260  644.3110 n3        1 MD2     -0.366000
     13 C13       680.3870 -903.1060-1956.8500 c1        1 MD2      0.168000
     14 C14       680.2520 -902.4820-1957.9620 c2        1 MD2     -0.162000
     15 HC11     -223.8070  300.0710  651.2000 ha        1 MD2      0.171500
     16 HC1A     -223.4650  301.8650  651.5730 ha        1 MD2      0.171500
     17 HC61     -221.2780  299.3880  647.1590 hx        1 MD2      0.145000
     18 HC62     -223.0160  299.1270  647.6790 hx        1 MD2      0.145000
     19 HC71     -222.2850  297.2830  646.2590 hc        1 MD2      0.135500
     20 HC72     -223.5590  298.2110  645.3770 hc        1 MD2      0.135500
     21 H111      679.9550 -904.2550-1953.6820 ha        1 MD2      0.176000
     22 H112      678.8790 -903.0070-1954.5840 ha        1 MD2      0.176000
     23 HC12      681.4550 -904.4850-1955.6540 ha        1 MD2      0.210000
     24 HC3      -224.7970  301.9860  647.8550 ha        1 MD2      0.166000
     25 HC41     -222.6440  302.7590  646.8450 hx        1 MD2      0.146000
     26 HC42     -221.6800  301.6270  647.9220 hx        1 MD2      0.146000
     27 HN5      -223.6560  300.6710  645.9040 hn        1 MD2      0.243500
     28 HC81     -221.8580  299.3200  643.9540 hc        1 MD2      0.078000
     29 HC82     -220.5120  298.6260  644.9510 hc        1 MD2      0.078000
     30 HC91     -220.9820  297.4820  642.7320 h1        1 MD2      0.081000
     31 HC92     -222.6260  297.0090  643.3460 h1        1 MD2      0.081000
     32 HN10     -221.2960  295.2030  643.7950 hn        1 MD2      0.163500
     33 H141      680.7180 -901.4920-1958.1720 ha        1 MD2      0.254000
     34 H142      679.6570 -902.8750-1958.8180 ha        1 MD2      0.254000
     35 H52      -222.0600  300.9590  645.5380 hn        1 MD2      0.243500
     36 H102     -220.0640  296.0700  644.4310 hn        1 MD2      0.163500
@<TRIPOS>BOND
     1    1    6 1   
     2    1   15 1   
     3    1   16 1   
     4    2    3 1   
     5    2    9 1   
     6    2   17 1   
     7    2   18 1   
     8    3   10 1   
     9    3   19 1   
    10    3   20 1   
    11    4    5 1   
    12    4   21 1   
    13    4   22 1   
    14    5   13 1   
    15    5   23 1   
    16    6    7 1   
    17    7    8 1   
    18    7   24 1   
    19    8    9 1   
    20    8   25 1   
    21    8   26 1   
    22    9   27 1   
    23    9   35 1   
    24   10   11 1   
    25   10   28 1   
    26   10   29 1   
    27   11   12 1   
    28   11   30 1   
    29   11   31 1   
    30   12   32 1   
    31   12   36 1   
    32   13   14 1   
    33   14   33 1   
    34   14   34 1   
@<TRIPOS>SUBSTRUCTURE
     1 MD2         1 TEMP              0 ****  ****    0 ROOT
