@<TRIPOS>MOLECULE
molecule
   43    46     1     0     0
SMALL
bcc


@<TRIPOS>ATOM
      1 C21          0.0000     0.0000     0.0000 c3         1 MD4       0.092600
      2 N16          1.4680     0.0000     0.0000 n4         1 MD4      -0.587800
      3 C20          1.9850    -1.1540    -0.7480 c3         1 MD4       0.092600
      4 C15          1.9930     0.0000     1.3920 c3         1 MD4       0.126500
      5 C14          1.8120     1.4610     1.8660 c3         1 MD4      -0.103400
      6 C13          1.8140     2.3000     0.5700 c3         1 MD4      -0.103400
      7 C17          3.4980    -0.3000     1.3120 c3         1 MD4      -0.123900
      8 C19          4.1920     0.8400     0.5610 c3         1 MD4       0.066000
      9 C18          3.5150     1.0530    -0.7960 c3         1 MD4      -0.123900
     10 C12          1.9930     1.2700    -0.5710 c3         1 MD4       0.126500
     11 N10          5.6000     0.4950     0.3530 na         1 MD4       0.107400
     12 N9           6.5870     1.3210     0.3710 nc         1 MD4      -0.184800
     13 N8           7.6950     0.7050     0.1560 nc         1 MD4      -0.322000
     14 C11          6.0840    -0.7440     0.1190 cd         1 MD4      -0.305600
     15 C7           7.4360    -0.6040    -0.0130 cc         1 MD4       0.370800
     16 C5           8.4210    -1.6800    -0.2830 ca         1 MD4      -0.092500
     17 C6           8.0100    -3.0080    -0.4360 ca         1 MD4      -0.234800
     18 C1           8.9590    -3.9760    -0.6920 ca         1 MD4       0.428700
     19 C4           9.7840    -1.3940    -0.3950 ca         1 MD4      -0.234800
     20 C3          10.6660    -2.4240    -0.6460 ca         1 MD4       0.428700
     21 N2          10.2370    -3.6640    -0.7890 nb         1 MD4      -0.672000
     22 H212        -0.3610     0.8580     0.5550 hx         1 MD4       0.099367
     23 H213        -0.3610     0.0520    -1.0200 hx         1 MD4       0.099367
     24 H211        -0.3610    -0.9090     0.4650 hx         1 MD4       0.099367
     25 H201         1.5680    -2.0660    -0.3380 hx         1 MD4       0.099367
     26 H202         3.0650    -1.1830    -0.6660 hx         1 MD4       0.099367
     27 H203         1.7040    -1.0650    -1.7900 hx         1 MD4       0.099367
     28 H15          1.4670    -0.7040     2.0260 hx         1 MD4       0.125200
     29 H141         0.8690     1.5740     2.3860 hc         1 MD4       0.094200
     30 H142         2.6350     1.7540     2.5060 hc         1 MD4       0.094200
     31 H132         0.8730     2.8250     0.4600 hc         1 MD4       0.094200
     32 H131         2.6400     3.0010     0.5770 hc         1 MD4       0.094200
     33 H172         3.9060    -0.3780     2.3120 hc         1 MD4       0.095950
     34 H171         3.6550    -1.2320     0.7820 hc         1 MD4       0.095950
     35 H19          4.1250     1.7500     1.1440 h1         1 MD4       0.110700
     36 H182         3.9380     1.9250    -1.2800 hc         1 MD4       0.095950
     37 H181         3.6690     0.1810    -1.4200 hc         1 MD4       0.095950
     38 H12          1.4750     1.5600    -1.4770 hx         1 MD4       0.125200
     39 H11          5.5130    -1.6620     0.0450 h4         1 MD4       0.176000
     40 H6           6.9630    -3.2720    -0.3570 ha         1 MD4       0.142500
     41 H1           8.6500    -5.0070    -0.8140 h4         1 MD4       0.033600
     42 H4          10.1430    -0.3790    -0.2790 ha         1 MD4       0.142500
     43 H3          11.7240    -2.2120    -0.7340 h4         1 MD4       0.033600
@<TRIPOS>BOND
     1    18    21 ar
     2    18    17 ar
     3    21    20 ar
     4    17    16 ar
     5    20    19 ar
     6    16    19 ar
     7    16    15 1
     8    15    14 2
     9    15    13 1
    10    14    11 1
    11    13    12 2
    12    11    12 1
    13    11     8 1
    14     8     9 1
    15     8     7 1
    16     9    10 1
    17     6    10 1
    18     6     5 1
    19     7     4 1
    20    10     2 1
    21     5     4 1
    22     4     2 1
    23     2     3 1
    24     2     1 1
    25     1    22 1
    26     1    23 1
    27     1    24 1
    28     3    25 1
    29     3    26 1
    30     3    27 1
    31     4    28 1
    32     5    29 1
    33     5    30 1
    34     6    31 1
    35     6    32 1
    36     7    33 1
    37     7    34 1
    38     8    35 1
    39     9    36 1
    40     9    37 1
    41    10    38 1
    42    14    39 1
    43    17    40 1
    44    18    41 1
    45    19    42 1
    46    20    43 1
@<TRIPOS>SUBSTRUCTURE
     1 MD4         1 TEMP              0 ****  ****    0 ROOT
