@<TRIPOS>MOLECULE
MD7
   39    41     1     0     0
SMALL
bcc


@<TRIPOS>ATOM
      1 CAN          0.0000     0.0000     0.0000 cx         1 MD7      -0.052400
      2 CAO          1.5310     0.0000     0.0000 cx         1 MD7      -0.052400
      3 CAW          0.7660     0.0000     1.3250 cx         1 MD7      -0.141500
      4 CAS          0.7660    -1.2740     2.1280 c2         1 MD7       0.269900
      5 OAC          1.2710    -2.4020     1.6000 oh         1 MD7      -0.477100
      6 CAR          0.2530    -1.2840     3.3920 ce         1 MD7      -0.150900
      7 CAD         -0.4620    -0.1460     3.8830 cg         1 MD7       0.204500
      8 NAA         -1.0310     0.7490     4.2910 n1         1 MD7      -0.388800
      9 CAQ          0.4370    -2.4640     4.2490 c          1 MD7       0.602300
     10 OAB          1.1510    -3.3770     3.8840 o          1 MD7      -0.639100
     11 NAP         -0.1890    -2.5330     5.4410 ns         1 MD7      -0.034100
     12 CAT         -0.1080    -3.7000     6.2060 ca         1 MD7      -0.094400
     13 CAK          0.0470    -3.6190     7.5850 ca         1 MD7      -0.106500
     14 CAM          0.1260    -4.7690     8.3400 ca         1 MD7      -0.085500
     15 CAJ         -0.1900    -4.9420     5.5860 ca         1 MD7      -0.106500
     16 CAL         -0.1120    -6.0950     6.3380 ca         1 MD7      -0.085500
     17 CAV          0.0490    -6.0150     7.7210 cp         1 MD7      -0.036000
     18 CAU          0.1350    -7.2550     8.5320 cp         1 MD7      -0.030000
     19 CAH          0.0590    -8.5010     7.9130 ca         1 MD7      -0.100000
     20 CAF          0.1380    -9.6510     8.6720 ca         1 MD7      -0.097500
     21 CAE          0.2930    -9.5680    10.0440 ca         1 MD7      -0.102000
     22 CAG          0.3690    -8.3330    10.6640 ca         1 MD7      -0.097500
     23 CAI          0.2960    -7.1760     9.9130 ca         1 MD7      -0.100000
     24 HAN         -0.4670     0.9390    -0.2700 hc         1 MD7       0.052450
     25 HANA        -0.4670    -0.9390    -0.2700 hc         1 MD7       0.052450
     26 HAO          1.9980    -0.9390    -0.2700 hc         1 MD7       0.052450
     27 HAOA         1.9980     0.9390    -0.2700 hc         1 MD7       0.052450
     28 HAW          0.7660     0.9390     1.8650 hc         1 MD7       0.081700
     29 HOAC         2.2010    -2.4320     1.7520 ho         1 MD7       0.434000
     30 HNAP        -0.8180    -1.8060     5.7190 hn         1 MD7       0.175500
     31 HAK          0.2120    -2.6570     8.0550 ha         1 MD7       0.121500
     32 HAM          0.2470    -4.7040     9.4140 ha         1 MD7       0.113500
     33 HAJ         -0.2100    -5.0080     4.5050 ha         1 MD7       0.121500
     34 HAL         -0.1760    -7.0620     5.8540 ha         1 MD7       0.113500
     35 HAH         -0.0640    -8.5670     6.8390 ha         1 MD7       0.111500
     36 HAF          0.0790   -10.6210     8.1940 ha         1 MD7       0.102000
     37 HAE          0.3550   -10.4720    10.6380 ha         1 MD7       0.102000
     38 HAG          0.4900    -8.2720    11.7390 ha         1 MD7       0.102000
     39 HAI          0.3590    -6.2090    10.3970 ha         1 MD7       0.111500
@<TRIPOS>BOND
     1     1     2 1   
     2     1     3 1   
     3     1    24 1   
     4     1    25 1   
     5     2     3 1   
     6     2    26 1   
     7     2    27 1   
     8     3     4 1   
     9     3    28 1   
    10     4     5 1   
    11     4     6 2   
    12     5    29 1   
    13     6     7 1   
    14     6     9 1   
    15     7     8 3   
    16     9    10 2   
    17     9    11 1   
    18    11    12 1   
    19    11    30 1   
    20    12    13 ar  
    21    12    15 ar  
    22    13    14 ar  
    23    13    31 1   
    24    14    17 ar  
    25    14    32 1   
    26    15    16 ar  
    27    15    33 1   
    28    16    17 ar  
    29    16    34 1   
    30    17    18 1   
    31    18    19 ar  
    32    18    23 ar  
    33    19    20 ar  
    34    19    35 1   
    35    20    21 ar  
    36    20    36 1   
    37    21    22 ar  
    38    21    37 1   
    39    22    23 ar  
    40    22    38 1   
    41    23    39 1   
@<TRIPOS>SUBSTRUCTURE
     1 MD7         1 TEMP              0 ****  ****    0 ROOT
