@<TRIPOS>MOLECULE
molecule
   39    41     1     0     0
SMALL
bcc


@<TRIPOS>ATOM
      1 CAN          0.0000     0.0000     0.0000 cx         1 MD7      -0.169400
      2 CAO          1.5310     0.0000     0.0000 cx         1 MD7      -0.169400
      3 CAW          0.7660     0.0000     1.3250 cx         1 MD7      -0.229500
      4 CAS          0.7660    -1.2740     2.1280 c2         1 MD7       0.223900
      5 OAC          1.2710    -2.4020     1.6000 oh         1 MD7      -0.541100
      6 CAR          0.2530    -1.2840     3.3920 ce         1 MD7      -0.092900
      7 CAD         -0.4620    -0.1460     3.8830 cg         1 MD7       0.204500
      8 NAA         -1.0420     0.7570     4.2570 n1         1 MD7      -0.328800
      9 CAQ          0.4370    -2.4640     4.2490 c          1 MD7       0.680300
     10 OAB          1.1510    -3.3770     3.8840 o          1 MD7      -0.586100
     11 NAP         -0.1890    -2.5330     5.4410 ns         1 MD7      -0.463100
     12 CAT         -0.1080    -3.7000     6.2060 ca         1 MD7       0.041600
     13 CAK          0.0470    -3.6190     7.5850 ca         1 MD7      -0.129500
     14 CAM          0.1260    -4.7690     8.3400 ca         1 MD7      -0.108500
     15 CAJ         -0.1900    -4.9420     5.5860 ca         1 MD7      -0.129500
     16 CAL         -0.1120    -6.0950     6.3380 ca         1 MD7      -0.108500
     17 CAV          0.0490    -6.0150     7.7210 cp         1 MD7      -0.039000
     18 CAU          0.1350    -7.2550     8.5320 cp         1 MD7      -0.035000
     19 CAH          0.0590    -8.5010     7.9130 ca         1 MD7      -0.119000
     20 CAF          0.1380    -9.6510     8.6720 ca         1 MD7      -0.126000
     21 CAE          0.2930    -9.5680    10.0440 ca         1 MD7      -0.126000
     22 CAG          0.3690    -8.3330    10.6640 ca         1 MD7      -0.126000
     23 CAI          0.2960    -7.1760     9.9130 ca         1 MD7      -0.119000
     24 HAN         -0.4670    -0.9390    -0.2700 hc         1 MD7       0.093700
     25 HANA        -0.4670     0.9390    -0.2700 hc         1 MD7       0.093700
     26 HAO          1.9980     0.9390    -0.2700 hc         1 MD7       0.093700
     27 HAOA         1.9980    -0.9390    -0.2700 hc         1 MD7       0.093700
     28 HAW          0.7650    -0.9390     1.8650 hc         1 MD7       0.206700
     29 HOAC         2.1660    -2.5060     1.8770 ho         1 MD7       0.458000
     30 HNAP        -0.8610    -1.8370     5.6950 hn         1 MD7       0.332500
     31 HAK          0.1180    -2.6500     8.0650 ha         1 MD7       0.144500
     32 HAM          0.2470    -4.7050     9.4140 ha         1 MD7       0.138500
     33 HAJ         -0.3040    -5.0050     4.5110 ha         1 MD7       0.144500
     34 HAL         -0.1760    -7.0630     5.8540 ha         1 MD7       0.138500
     35 HAH         -0.1120    -8.5670     6.8460 ha         1 MD7       0.132500
     36 HAF          0.0790   -10.6210     8.1940 ha         1 MD7       0.131000
     37 HAE          0.3550   -10.4720    10.6380 ha         1 MD7       0.130000
     38 HAG          0.4900    -8.2720    11.7390 ha         1 MD7       0.131000
     39 HAI          0.3110    -6.2100    10.4030 ha         1 MD7       0.132500
@<TRIPOS>BOND
     1     1     2 1
     2     1     3 1
     3     2     3 1
     4     3     4 1
     5     4     5 1
     6     4     6 2
     7     6     7 1
     8     6     9 1
     9     7     8 3
    10     9    10 2
    11     9    11 1
    12    11    12 1
    13    12    13 ar
    14    12    15 ar
    15    13    14 ar
    16    14    17 ar
    17    15    16 ar
    18    16    17 ar
    19    17    18 1
    20    18    19 ar
    21    18    23 ar
    22    19    20 ar
    23    20    21 ar
    24    21    22 ar
    25    22    23 ar
    26     1    24 1
    27     1    25 1
    28     2    26 1
    29     2    27 1
    30     3    28 1
    31     5    29 1
    32    11    30 1
    33    13    31 1
    34    14    32 1
    35    15    33 1
    36    16    34 1
    37    19    35 1
    38    20    36 1
    39    21    37 1
    40    22    38 1
    41    23    39 1
@<TRIPOS>SUBSTRUCTURE
     1 MD7         1 TEMP              0 ****  ****    0 ROOT
