@<TRIPOS>MOLECULE
molecule
   65    66     1     0     0
SMALL
bcc


@<TRIPOS>ATOM
      1 C            0.0000     0.0000     0.0000 c          1 MDB       0.666100
      2 N            1.9950     1.1950    -0.6910 ns         1 MDB      -0.585900
      3 O           -0.6050     0.9930     0.3450 o          1 MDB      -0.600100
      4 CA           1.5070     0.0000     0.0000 c3         1 MDB       0.069700
      5 CB           2.0180     0.0000     1.4420 c3         1 MDB      -0.079000
      6 CAA          1.4050    -1.1790     2.2000 c3         1 MDB      -0.086433
      7 CAC          3.5430    -0.1290     1.4430 c3         1 MDB      -0.086433
      8 CAD          1.6170     1.3100     2.1240 c3         1 MDB      -0.086433
      9 CAG          3.2180     1.1930    -1.2610 c          1 MDB       0.785100
     10 OAH          3.9150     0.1990    -1.2000 o          1 MDB      -0.663100
     11 NAI          3.6670     2.2930    -1.8970 ns         1 MDB      -0.478100
     12 CAJ          4.8900     2.2570    -2.5800 ca         1 MDB       0.052600
     13 CAK          5.3540     1.0640    -3.1140 ca         1 MDB      -0.103000
     14 CAL          6.5620     1.0320    -3.7860 ca         1 MDB      -0.148000
     15 CAM          7.3090     2.1850    -3.9270 ca         1 MDB      -0.112000
     16 CAN          6.8540     3.3780    -3.3970 ca         1 MDB      -0.202000
     17 CAP          5.6410     3.4210    -2.7270 ca         1 MDB       0.103100
     18 OAP          5.1900     4.5950    -2.2100 os         1 MDB      -0.339900
     19 CAQ          6.0130     5.7470    -2.4010 c3         1 MDB       0.131700
     20 NAS         -0.6740    -1.1040    -0.3770 n          1 MDB      -0.463800
     21 CAT          0.0530    -2.3410    -0.6710 c3         1 MDB       0.028000
     22 CAU          0.0370    -3.2340     0.5440 c          1 MDB       0.641100
     23 OAV         -0.6370    -2.9370     1.5060 o          1 MDB      -0.558100
     24 NAW          0.7740    -4.3630     0.5590 ns         1 MDB      -0.473400
     25 OAX          0.7590    -5.2020     1.7000 oh         1 MDB      -0.357100
     26 CAY         -2.1340    -1.0670    -0.4920 c3         1 MDB       0.116000
     27 CAZ         -2.5220    -0.6550    -1.9130 c3         1 MDB      -0.097700
     28 CBA         -4.0500    -0.7340    -2.0860 c3         1 MDB      -0.082900
     29 CBB         -4.5270     0.6920    -2.4370 c3         1 MDB      -0.083400
     30 CBC         -3.2740     1.3740    -3.0410 c3         1 MDB      -0.083400
     31 CBD         -2.1250     0.8130    -2.1660 c3         1 MDB      -0.082900
     32 HN           1.4100     2.0040    -0.7660 hn         1 MDB       0.327500
     33 HA           1.8680    -0.8850    -0.5110 h1         1 MDB       0.075700
     34 HAA          1.7830    -1.1920     3.2150 hc         1 MDB       0.043811
     35 HAAA         1.6710    -2.1050     1.7040 hc         1 MDB       0.043811
     36 HAAB         0.3270    -1.0760     2.2180 hc         1 MDB       0.043811
     37 HAC          3.8800    -0.4190     2.4300 hc         1 MDB       0.043811
     38 HACA         3.8420    -0.8810     0.7230 hc         1 MDB       0.043811
     39 HACB         3.9860     0.8230     1.1760 hc         1 MDB       0.043811
     40 HAD          2.0380     1.3410     3.1220 hc         1 MDB       0.043811
     41 HADA         0.5370     1.3680     2.1860 hc         1 MDB       0.043811
     42 HADB         1.9920     2.1470     1.5480 hc         1 MDB       0.043811
     43 HNAI         3.1140     3.1270    -1.9050 hn         1 MDB       0.330500
     44 HAK          4.7700     0.1590    -3.0050 ha         1 MDB       0.171000
     45 HAL          6.9230     0.0990    -4.2030 ha         1 MDB       0.133000
     46 HAM          8.2560     2.1540    -4.4530 ha         1 MDB       0.129000
     47 HAN          7.4420     4.2810    -3.5120 ha         1 MDB       0.136000
     48 HAQ          6.9790     5.5810    -1.9390 h1         1 MDB       0.041700
     49 HAQA         5.5390     6.6090    -1.9460 h1         1 MDB       0.041700
     50 HAQB         6.1460     5.9250    -3.4610 h1         1 MDB       0.041700
     51 HAT          1.0770    -2.1040    -0.9330 h1         1 MDB       0.078200
     52 HATA        -0.4230    -2.8510    -1.5000 h1         1 MDB       0.078200
     53 HNAW         1.3030    -4.6260    -0.2490 hn         1 MDB       0.320500
     54 HOAX         0.9460    -6.0890     1.4410 ho         1 MDB       0.398000
     55 HAY         -2.5380    -2.0490    -0.2780 h1         1 MDB       0.070700
     56 HAYA        -2.5340    -0.3500     0.2140 h1         1 MDB       0.070700
     57 HAZ         -2.0360    -1.2980    -2.6370 hc         1 MDB       0.044700
     58 HBA         -4.5100    -1.0600    -1.1620 hc         1 MDB       0.050450
     59 HBAA        -4.2970    -1.4150    -2.8920 hc         1 MDB       0.050450
     60 HBB         -5.3250     0.6530    -3.1690 hc         1 MDB       0.044450
     61 HBBA        -4.8470     1.2130    -1.5440 hc         1 MDB       0.044450
     62 HBC         -3.1420     1.0840    -4.0760 hc         1 MDB       0.044450
     63 HBCA        -3.3390     2.4500    -2.9410 hc         1 MDB       0.044450
     64 HBD         -1.1850     0.8630    -2.7020 hc         1 MDB       0.050450
     65 HBDA        -2.0650     1.3540    -1.2300 hc         1 MDB       0.050450
@<TRIPOS>BOND
     1     1     3 2
     2     1     4 1
     3     1    20 1
     4     2     4 1
     5     2     9 1
     6     4     5 1
     7     5     6 1
     8     5     7 1
     9     5     8 1
    10     9    10 2
    11     9    11 1
    12    11    12 1
    13    12    13 ar
    14    12    17 ar
    15    13    14 ar
    16    14    15 ar
    17    15    16 ar
    18    16    17 ar
    19    17    18 1
    20    18    19 1
    21    20    21 1
    22    20    26 1
    23    21    22 1
    24    22    23 2
    25    22    24 1
    26    24    25 1
    27    26    27 1
    28    27    28 1
    29    27    31 1
    30    28    29 1
    31    29    30 1
    32    30    31 1
    33     2    32 1
    34     4    33 1
    35     6    34 1
    36     6    35 1
    37     6    36 1
    38     7    37 1
    39     7    38 1
    40     7    39 1
    41     8    40 1
    42     8    41 1
    43     8    42 1
    44    11    43 1
    45    13    44 1
    46    14    45 1
    47    15    46 1
    48    16    47 1
    49    19    48 1
    50    19    49 1
    51    19    50 1
    52    21    51 1
    53    21    52 1
    54    24    53 1
    55    25    54 1
    56    26    55 1
    57    26    56 1
    58    27    57 1
    59    28    58 1
    60    28    59 1
    61    29    60 1
    62    29    61 1
    63    30    62 1
    64    30    63 1
    65    31    64 1
    66    31    65 1
@<TRIPOS>SUBSTRUCTURE
     1 MDB         1 TEMP              0 ****  ****    0 ROOT
