@<TRIPOS>MOLECULE
MDC
   50    52     1     0     0
SMALL
bcc


@<TRIPOS>ATOM
      1 C1          0.9540   -1.0930   -0.0890 c3        1 MDC     -0.153900
      2 C2          2.4200   -1.1960    0.3200 c3        1 MDC     -0.153900
      3 C3          2.4920   -0.6410    1.7280 c         1 MDC      0.713000
      4 O3          3.4700   -0.5490    2.4640 o         1 MDC     -0.568000
      5 N4          1.1770   -0.1970    2.1320 n         1 MDC     -0.469600
      6 C5          0.2370   -0.4850    1.1060 c         1 MDC      0.713000
      7 O5         -0.9780   -0.2800    1.2040 o         1 MDC     -0.568000
      8 C6          0.9630    0.2970    3.4070 c2        1 MDC      0.067600
      9 C7         -0.0390    1.0580    3.9080 c2        1 MDC     -0.186000
     10 N8         -1.1720    1.5790    3.1750 n4        1 MDC     -0.539600
     11 C9         -2.0730    2.4700    4.0030 c         1 MDC      0.600300
     12 O9         -2.1440    2.2030    5.2020 o         1 MDC     -0.480100
     13 O11        -3.2870    4.8810    1.3270 os        1 MDC     -0.291200
     14 C12        -2.5650    3.8610    1.9290 c         1 MDC      0.759800
     15 O12        -1.7680    3.3630    1.1230 o         1 MDC     -0.618500
     16 C13        -2.7920    3.5220    3.3180 cc        1 MDC     -0.422400
     17 C14        -3.7320    4.2470    4.0480 cd        1 MDC      0.164800
     18 C24        -4.4550    5.2760    3.4370 ca        1 MDC     -0.267800
     19 C28        -4.2210    5.5790    2.0640 ca        1 MDC      0.247100
     20 C15        -5.4320    6.0600    4.1100 ca        1 MDC      0.012000
     21 C16        -6.1160    7.0540    3.4690 ca        1 MDC     -0.233000
     22 C17        -5.8780    7.3610    2.0760 ca        1 MDC      0.311600
     23 N17        -6.5650    8.3530    1.4420 nh        1 MDC     -0.628000
     24 C18        -4.8960    6.5830    1.3900 ca        1 MDC     -0.276000
     25 C19        -7.4150    9.2830    2.1670 c3        1 MDC      0.196300
     26 C20        -8.8520    8.8220    2.3550 c3        1 MDC     -0.121100
     27 C21        -6.4800    8.5420    0.0040 c3        1 MDC      0.196300
     28 C22        -5.3410    9.4380   -0.4560 c3        1 MDC     -0.121100
     29 H11         0.8080   -0.4320   -0.9820 hc        1 MDC      0.113950
     30 H12         0.5050   -2.0930   -0.3180 hc        1 MDC      0.113950
     31 H21         2.7850   -2.2560    0.3200 hc        1 MDC      0.113950
     32 H22         3.0900   -0.5970   -0.3500 hc        1 MDC      0.113950
     33 H6          1.7970    0.0460    4.1120 h4        1 MDC      0.208000
     34 H7         -0.0350    1.3210    4.9860 hx        1 MDC      0.217000
     35 HN8        -1.7490    0.7940    2.8200 hn        1 MDC      0.481300
     36 H14        -3.9060    4.0050    5.1140 ha        1 MDC      0.175000
     37 H15        -5.6360    5.8430    5.1730 ha        1 MDC      0.155000
     38 H16        -6.8790    7.6200    4.0270 ha        1 MDC      0.162000
     39 H18        -4.6440    6.7720    0.3350 ha        1 MDC      0.178000
     40 H191       -6.9530    9.4990    3.1730 h1        1 MDC      0.068700
     41 H192       -7.4150   10.2550    1.5910 h1        1 MDC      0.068700
     42 H201       -9.4100    9.6190    2.9040 hc        1 MDC      0.055367
     43 H202       -9.3520    8.6520    1.3710 hc        1 MDC      0.055367
     44 H203       -8.9030    7.8770    2.9460 hc        1 MDC      0.055367
     45 H211       -6.3910    7.5340   -0.4950 h1        1 MDC      0.068700
     46 H212       -7.4600    8.9920   -0.3330 h1        1 MDC      0.068700
     47 H221       -4.3490    9.0150   -0.1710 hc        1 MDC      0.055367
     48 H222       -5.3860    9.5240   -1.5700 hc        1 MDC      0.055367
     49 H223       -5.4300   10.4610   -0.0180 hc        1 MDC      0.055367
     50 H82        -0.8290    2.0970    2.3450 hn        1 MDC      0.481300
@<TRIPOS>BOND
     1    1    2 1
     2    1    6 1
     3    1   29 1
     4    1   30 1
     5    2    3 1
     6    2   31 1
     7    2   32 1
     8    3    4 2
     9    3    5 1
    10    5    6 1
    11    5    8 1
    12    6    7 2
    13    8    9 2
    14    8   33 1
    15    9   10 1
    16    9   34 1
    17   10   11 1
    18   10   35 1
    19   10   50 1
    20   11   12 2
    21   11   16 1
    22   13   14 1
    23   13   19 1
    24   14   15 2
    25   14   16 1
    26   16   17 2
    27   17   18 1
    28   17   36 1
    29   18   19 ar
    30   18   20 ar
    31   19   24 ar
    32   20   21 ar
    33   20   37 1
    34   21   22 ar
    35   21   38 1
    36   22   23 1
    37   22   24 ar
    38   23   25 1
    39   23   27 1
    40   24   39 1
    41   25   26 1
    42   25   40 1
    43   25   41 1
    44   26   42 1
    45   26   43 1
    46   26   44 1
    47   27   28 1
    48   27   45 1
    49   27   46 1
    50   28   47 1
    51   28   48 1
    52   28   49 1
@<TRIPOS>SUBSTRUCTURE
     1 MDC         1 TEMP              0 ****  ****    0 ROOT
