@<TRIPOS>MOLECULE
molecule
    9     8     1     0     0
SMALL
bcc


@<TRIPOS>ATOM
      1 OA4          0.0000     0.0000     0.0000 o          1 MDD      -0.508100
      2 CA5          1.2070     0.0000     0.0000 c          1 MDD       0.573900
      3 CA6          1.9600     0.0000     1.3050 c3         1 MDD      -0.330400
      4 CA7          2.8280    -1.2280     1.3850 c          1 MDD       0.573900
      5 OA8          4.0240    -1.1170     1.4960 o          1 MDD      -0.508100
      6 HA5          1.7480     0.0300    -0.9380 h4         1 MDD       0.005700
      7 HA61         2.5820     0.8850     1.3620 hc         1 MDD       0.093700
      8 HA62         1.2560    -0.0010     2.1280 hc         1 MDD       0.093700
      9 HA7          2.3760    -2.2120     1.3550 h4         1 MDD       0.005700
@<TRIPOS>BOND
     1     1     2 2
     2     2     3 1
     3     2     6 1
     4     3     4 1
     5     3     7 1
     6     3     8 1
     7     4     5 2
     8     4     9 1
@<TRIPOS>SUBSTRUCTURE
     1 MDD         1 TEMP              0 ****  ****    0 ROOT
