@<TRIPOS>MOLECULE
MDD
    9     8     1     0     0
SMALL
bcc


@<TRIPOS>ATOM
      1 OA4        -0.1500    0.3540    0.2540 o         1 MDD     -0.509100
      2 CA5         0.9480   -0.1970    0.1950 c         1 MDD      0.568900
      3 CA6         2.0170    0.0260    1.2190 c3        1 MDD     -0.335400
      4 CA7         3.0180   -1.0870    1.2680 c         1 MDD      0.568900
      5 OA8         3.7140   -1.3060    2.2580 o         1 MDD     -0.509100
      6 HA5         1.2100   -0.8870   -0.6390 h4        1 MDD     -0.001800
      7 HA61        1.5580    0.1810    2.2330 hc        1 MDD      0.109700
      8 HA62        2.5610    0.9780    0.9610 hc        1 MDD      0.109700
      9 HA7         3.1060   -1.7030    0.3450 h4        1 MDD     -0.001800
@<TRIPOS>BOND
     1    1    2 2   
     2    2    3 1   
     3    2    6 1   
     4    3    4 1   
     5    3    7 1   
     6    3    8 1   
     7    4    5 2   
     8    4    9 1   
@<TRIPOS>SUBSTRUCTURE
     1 MDD         1 TEMP              0 ****  ****    0 ROOT
