@<TRIPOS>MOLECULE
molecule
   46    48     1     0     0
SMALL
bcc


@<TRIPOS>ATOM
      1 PB           0.0000     0.0000     0.0000 p5         1 MDG       1.169900
      2 O1B          1.6100     0.0000     0.0000 o          1 MDG      -0.621500
      3 O2B         -0.5370     0.0000     1.5180 o          1 MDG      -0.621500
      4 O3B         -0.4920    -1.2090    -0.6980 o          1 MDG      -0.621500
      5 O3A         -0.5360     1.3130    -0.7600 os         1 MDG      -0.624800
      6 PA          -2.1450     1.2470    -0.7230 p5         1 MDG       1.270800
      7 O1A         -2.6450     1.2270     0.8070 o          1 MDG      -0.784000
      8 O2A         -2.6040     0.0210    -1.4090 o          1 MDG      -0.784000
      9 O5'         -2.7510     2.5390    -1.4700 os         1 MDG      -0.528200
     10 C5'         -4.1740     2.4240    -1.4040 c3         1 MDG       0.170400
     11 C4'         -4.8160     3.6260    -2.0980 c3         1 MDG       0.125100
     12 O4'         -4.4390     3.6600    -3.4920 os         1 MDG      -0.365600
     13 C3'         -6.3540     3.4850    -2.1090 c3         1 MDG       0.082100
     14 O3'         -6.9330     4.2450    -1.0450 oh         1 MDG      -0.595800
     15 C2'         -6.7750     4.0620    -3.4810 c3         1 MDG       0.079100
     16 O2'         -7.6290     5.1950    -3.3060 oh         1 MDG      -0.600800
     17 C1'         -5.4400     4.4790    -4.1360 c3         1 MDG       0.435300
     18 N9          -5.4720     4.2070    -5.5750 nh         1 MDG      -0.722400
     19 C8          -5.2840     5.1930    -6.6450 c3         1 MDG       0.586000
     20 N7          -5.4030     4.4410    -7.9010 nh         1 MDG      -0.738400
     21 CM7         -5.2920     4.9810    -9.2580 c3         1 MDG       0.285100
     22 C5          -5.6530     3.0980    -7.5470 cc         1 MDG      -0.183200
     23 C6          -5.8470     1.9550    -8.3350 c          1 MDG       0.745700
     24 O6          -5.8240     2.0290    -9.5550 o          1 MDG      -0.739500
     25 N1          -6.0610     0.7710    -7.7250 ns         1 MDG      -0.467400
     26 C2          -6.0830     0.7010    -6.3650 cc         1 MDG       0.180800
     27 N2          -6.3010    -0.5100    -5.7600 nz         1 MDG      -0.647600
     28 N3          -5.9060     1.7690    -5.6190 nd         1 MDG      -0.644300
     29 C4          -5.6850     2.9730    -6.1670 cd         1 MDG       0.380600
     30 H5'1        -4.4860     1.5120    -1.8980 h1         1 MDG       0.058200
     31 H5'2        -4.4860     2.3970    -0.3670 h1         1 MDG       0.058200
     32 H4'         -4.5280     4.5490    -1.6100 h1         1 MDG       0.061700
     33 H3'         -6.6370     2.4420    -2.0350 h1         1 MDG       0.055700
     34 HO3'        -7.5810     3.7230    -0.6020 ho         1 MDG       0.398000
     35 H2'         -7.2640     3.2990    -4.0750 h1         1 MDG       0.101700
     36 HO2'        -7.1050     5.9730    -3.2150 ho         1 MDG       0.398000
     37 H1'         -5.2430     5.5270    -3.9490 h2         1 MDG       0.046700
     38 H81         -4.3010     5.6420    -6.5710 h2         1 MDG       0.009700
     39 H82         -6.0540     5.9540    -6.5910 h2         1 MDG       0.009700
     40 HM71        -4.4670     4.5030    -9.7700 h1         1 MDG       0.021700
     41 HM72        -5.1170     6.0490    -9.2080 h1         1 MDG       0.021700
     42 HM73        -6.2120     4.7910    -9.7980 h1         1 MDG       0.021700
     43 HN1         -6.2020    -0.0560    -8.2710 hn         1 MDG       0.292500
     44 HN21        -7.0970    -0.9530    -6.1760 hn         1 MDG       0.408133
     45 HN22        -5.4950    -1.0920    -5.8800 hn         1 MDG       0.408133
     46 H23         -6.4690    -0.3710    -4.7840 hn         1 MDG       0.408133
@<TRIPOS>BOND
     1     1     2 1
     2     1     3 1
     3     1     4 1
     4     1     5 1
     5     5     6 1
     6     6     7 1
     7     6     8 1
     8     6     9 1
     9     9    10 1
    10    10    11 1
    11    10    30 1
    12    10    31 1
    13    11    12 1
    14    11    13 1
    15    11    32 1
    16    12    17 1
    17    13    14 1
    18    13    15 1
    19    13    33 1
    20    14    34 1
    21    15    16 1
    22    15    17 1
    23    15    35 1
    24    16    36 1
    25    17    18 1
    26    17    37 1
    27    18    19 1
    28    18    29 1
    29    19    20 1
    30    19    38 1
    31    19    39 1
    32    20    21 1
    33    20    22 1
    34    21    40 1
    35    21    41 1
    36    21    42 1
    37    22    23 1
    38    22    29 2
    39    23    24 2
    40    23    25 1
    41    25    26 1
    42    25    43 1
    43    26    27 1
    44    26    28 2
    45    27    44 1
    46    27    45 1
    47    28    29 1
    48    46    27 1
@<TRIPOS>SUBSTRUCTURE
     1 MDG         1 TEMP              0 ****  ****    0 ROOT
