@<TRIPOS>MOLECULE
molecule
   11    10     1     0     0
SMALL
bcc


@<TRIPOS>ATOM
      1 O3           0.0000     0.0000     0.0000 o          1 MDN      -0.973833
      2 P1           1.6110     0.0000     0.0000 p5         1 MDN       1.153200
      3 O1           2.1030     0.0000     1.3950 o          1 MDN      -0.973833
      4 O2           2.1470     1.3130    -0.7590 o          1 MDN      -0.973833
      5 C4           2.2180    -1.4890    -0.8580 c3         1 MDN      -0.444800
      6 P5           4.0400    -1.4880    -0.8580 p5         1 MDN       1.153200
      7 O6           4.5330    -1.4880     0.5370 o          1 MDN      -0.973833
      8 O7           4.5770    -2.8040    -1.6170 o          1 MDN      -0.973833
      9 O8           4.5770    -0.1750    -1.6180 o          1 MDN      -0.973833
     10 H41          1.8570    -2.3730    -0.3470 hc         1 MDN      -0.009300
     11 H42          1.8570    -1.4900    -1.8800 hc         1 MDN      -0.009300
@<TRIPOS>BOND
     1     1     2 1
     2     2     3 1
     3     2     4 1
     4     2     5 1
     5     5     6 1
     6     5    10 1
     7     5    11 1
     8     6     7 1
     9     6     8 1
    10     6     9 1
@<TRIPOS>SUBSTRUCTURE
     1 MDN         1 TEMP              0 ****  ****    0 ROOT
