@<TRIPOS>MOLECULE
MDN
   11    10     1     0     0
SMALL
bcc


@<TRIPOS>ATOM
      1 O3          0.1350    0.0080   -0.7860 o         1 MDN     -1.013833
      2 P1          1.4030    0.0920    0.0820 p5        1 MDN      1.270700
      3 O1          1.0660   -0.3770    1.5010 o         1 MDN     -1.013833
      4 O2          1.9190    1.5280    0.0870 o         1 MDN     -1.013833
      5 C4          2.5120   -1.1160   -0.6690 c3        1 MDN     -0.488800
      6 P5          4.2210   -1.6000   -0.9900 p5        1 MDN      1.270700
      7 O6          5.2200   -1.1980    0.0910 o         1 MDN     -1.013833
      8 O7          4.1520   -3.1340   -1.0770 o         1 MDN     -1.013833
      9 O8          4.6320   -1.0420   -2.3560 o         1 MDN     -1.013833
     10 H41         2.1250   -1.1160   -1.7150 hc        1 MDN      0.014700
     11 H42         2.1350   -2.0410   -0.1730 hc        1 MDN      0.014700
@<TRIPOS>BOND
     1    1    2 1   
     2    2    3 1   
     3    2    4 1   
     4    2    5 1   
     5    5    6 1   
     6    5   10 1   
     7    5   11 1   
     8    6    7 1   
     9    6    8 1   
    10    6    9 1   
@<TRIPOS>SUBSTRUCTURE
     1 MDN         1 TEMP              0 ****  ****    0 ROOT
