@<TRIPOS>MOLECULE
MDS
   56    58     1     0     0
SMALL
bcc


@<TRIPOS>ATOM
      1 O1           0.0000     0.0000     0.0000 oh         1 MDS      -0.539800
      2 C1           1.4290     0.0000     0.0000 c3         1 MDS       0.123100
      3 C2           1.9870     0.0000     1.4450 c3         1 MDS       0.166800
      4 O2           3.2880     0.5990     1.3440 os         1 MDS      -0.411600
      5 C3           3.3510     1.4440     0.1890 c3         1 MDS       0.165100
      6 C4           3.6090     2.8900     0.6160 c3         1 MDS       0.211800
      7 N1           4.9480     2.9940     1.2020 n7         1 MDS      -0.569100
      8 S1           5.6470     4.4810     1.4110 s6         1 MDS       1.117500
      9 O3           6.8950     4.2340     2.0420 o          1 MDS      -0.537800
     10 O4           5.4690     5.1680     0.1810 o          1 MDS      -0.537800
     11 N2           4.7340     5.3030     2.5230 ns         1 MDS      -0.290300
     12 C5           4.6590     4.8590     3.7930 c          1 MDS       0.644100
     13 O5           5.2580     3.8580     4.1220 o          1 MDS      -0.584100
     14 C6           3.8290     5.6080     4.8040 c3         1 MDS      -0.169500
     15 N3           4.2650     5.2470     6.1600 nz         1 MDS       0.089400
     16 C7           2.3550     5.2390     4.6280 c3         1 MDS      -0.009400
     17 C8           1.5000     6.0910     5.5690 c3         1 MDS       0.030700
     18 S2          -0.2480     5.6550     5.3590 ss         1 MDS      -0.328200
     19 C9          -1.0010     6.7850     6.5610 c3         1 MDS       0.125000
     20 C10          1.9880     1.3470    -0.5330 c3         1 MDS       0.137100
     21 O6           1.1370     2.4330    -0.1620 oh         1 MDS      -0.570800
     22 N4           2.0970    -1.3720     1.9480 na         1 MDS       0.186000
     23 C11          3.1960    -2.1760     1.8660 cc         1 MDS       0.237700
     24 N5           2.9440    -3.3290     2.4140 nd         1 MDS      -0.479100
     25 C12          1.6730    -3.3390     2.8820 ca         1 MDS      -0.250200
     26 C13          0.8720    -4.2820     3.5470 ca         1 MDS       0.594200
     27 N6          -0.3730    -3.9430     3.8670 nb         1 MDS      -0.741000
     28 C14         -0.8540    -2.7490     3.5690 ca         1 MDS       0.699900
     29 N7          -0.1410    -1.8350     2.9480 nb         1 MDS      -0.688000
     30 C15          1.1160    -2.0810     2.5930 ca         1 MDS       0.279800
     31 N8           1.3680    -5.5340     3.8620 nv         1 MDS      -0.469500
     32 HO1         -0.3140    -0.4730    -0.7520 ho         1 MDS       0.399000
     33 H1           1.8250    -0.8340    -0.5670 h1         1 MDS       0.031700
     34 H2           1.3520     0.5930     2.0910 h2         1 MDS       0.067700
     35 H3           4.1390     1.1040    -0.4710 h1         1 MDS       0.044700
     36 H41          3.5420     3.5400    -0.2480 h1         1 MDS       0.029200
     37 H42          2.8700     3.1880     1.3500 h1         1 MDS       0.029200
     38 HN1          5.4540     2.1650     1.4420 hn         1 MDS       0.379800
     39 HN2          4.2720     6.1510     2.2610 hn         1 MDS       0.242500
     40 H6           3.9550     6.6740     4.6560 hx         1 MDS       0.097700
     41 HN31         3.9180     4.3370     6.3910 hn         1 MDS       0.233133
     42 HN32         3.9090     5.9150     6.8140 hn         1 MDS       0.233133
     43 H71          2.2140     4.1910     4.8610 hc         1 MDS       0.069700
     44 H72          2.0570     5.4240     3.6030 hc         1 MDS       0.069700
     45 H81          1.7980     5.9060     6.5940 h1         1 MDS       0.028700
     46 H82          1.6410     7.1390     5.3350 h1         1 MDS       0.028700
     47 H91         -0.7160     7.8030     6.3270 h1         1 MDS       0.041700
     48 H92         -2.0790     6.6920     6.5180 h1         1 MDS       0.041700
     49 H93         -0.6570     6.5340     7.5570 h1         1 MDS       0.041700
     50 H10          2.1260     1.3060    -1.6070 h1         1 MDS       0.024700
     51 HO6          0.6900     2.7580    -0.9260 ho         1 MDS       0.407000
     52 H11          4.1390    -1.8960     1.4120 h5         1 MDS       0.036800
     53 H14         -1.8740    -2.5140     3.8490 h5         1 MDS      -0.002900
     54 HN81         0.8010    -6.1830     4.3720 hn         1 MDS       0.279300
     55 HN82         2.2890    -5.7960     3.5700 hn         1 MDS       0.279300
     56 H33          5.2650     5.2520     6.2020 hn         1 MDS       0.233133
@<TRIPOS>BOND
     1     1     2 1   
     2     1    32 1   
     3     2     3 1   
     4     2    20 1   
     5     2    33 1   
     6     3     4 1   
     7     3    22 1   
     8     3    34 1   
     9     4     5 1   
    10     5     6 1   
    11     5    20 1   
    12     5    35 1   
    13     6     7 1   
    14     6    36 1   
    15     6    37 1   
    16     7     8 1   
    17     7    38 1   
    18     8     9 2   
    19     8    10 2   
    20     8    11 1   
    21    11    12 1   
    22    11    39 1   
    23    12    13 2   
    24    12    14 1   
    25    14    15 1   
    26    14    16 1   
    27    14    40 1   
    28    15    41 1   
    29    15    42 1   
    30    15    56 1   
    31    16    17 1   
    32    16    43 1   
    33    16    44 1   
    34    17    18 1   
    35    17    45 1   
    36    17    46 1   
    37    18    19 1   
    38    19    47 1   
    39    19    48 1   
    40    19    49 1   
    41    20    21 1   
    42    20    50 1   
    43    21    51 1   
    44    22    23 1   
    45    22    30 1   
    46    23    24 2   
    47    23    52 1   
    48    24    25 1   
    49    25    26 ar  
    50    25    30 ar  
    51    26    27 ar  
    52    26    31 1   
    53    27    28 ar  
    54    28    29 ar  
    55    28    53 1   
    56    29    30 ar  
    57    31    54 1   
    58    31    55 1   
@<TRIPOS>SUBSTRUCTURE
     1 MDS         1 TEMP              0 ****  ****    0 ROOT
