@<TRIPOS>MOLECULE
molecule
   48    50     1     0     0
SMALL
bcc


@<TRIPOS>ATOM
      1 C3           0.0000     0.0000     0.0000 ca         1 MDW      -0.139000
      2 C2           1.3820     0.0000     0.0000 ca         1 MDW       0.098100
      3 O1           2.0660    -0.0010    -1.1760 oh         1 MDW      -0.500100
      4 C7           2.0710     0.0000     1.2100 ca         1 MDW       0.109100
      5 O12          3.4310     0.0050     1.2220 os         1 MDW      -0.273900
      6 C13          3.8300     0.0040     2.5940 c3         1 MDW       0.100700
      7 C6           1.3640    -0.0050     2.3970 ca         1 MDW      -0.214000
      8 C5          -0.0250    -0.0110     2.3920 ca         1 MDW      -0.066300
      9 C8          -0.7300    -0.0390     3.7200 c3         1 MDW       0.233800
     10 C14         -0.5460    -1.3920     4.3570 c          1 MDW       0.651100
     11 O15         -1.5130    -2.0760     4.6190 o          1 MDW      -0.561100
     12 N16          0.6930    -1.8430     4.6360 ns         1 MDW      -0.469400
     13 O17          0.8650    -3.1150     5.2350 oh         1 MDW      -0.357100
     14 C4          -0.7080    -0.0030     1.1960 ca         1 MDW      -0.063300
     15 C10         -2.2130     0.0080     1.1140 c3         1 MDW      -0.050100
     16 C11         -2.8310    -0.4860     2.4210 c3         1 MDW       0.235800
     17 N9          -2.1620     0.2130     3.5310 n3         1 MDW      -0.791500
     18 S18         -2.9930     1.2490     4.5210 sy         1 MDW       1.437200
     19 O40         -2.0150     2.1110     5.0860 o          1 MDW      -0.640300
     20 O41         -4.1280     1.6680     3.7770 o          1 MDW      -0.640300
     21 C19         -3.6250     0.2990     5.8650 ca         1 MDW      -0.343500
     22 C20         -4.8750    -0.2820     5.7700 ca         1 MDW       0.013500
     23 C21         -5.3710    -1.0330     6.8190 ca         1 MDW      -0.210000
     24 C22         -4.6180    -1.1920     7.9730 ca         1 MDW       0.174100
     25 O25         -5.1060    -1.9240     9.0090 os         1 MDW      -0.292900
     26 C26         -6.3990    -2.3870     8.6150 c3         1 MDW       0.102700
     27 C23         -3.3630    -0.6070     8.0650 ca         1 MDW      -0.210000
     28 C24         -2.8700     0.1370     7.0110 ca         1 MDW       0.013500
     29 H28         -0.5360    -0.0000    -0.9410 ha         1 MDW       0.147000
     30 H27          1.9200     0.8160    -1.6240 ho         1 MDW       0.420000
     31 H35          4.9050     0.1270     2.6570 h1         1 MDW       0.042700
     32 H36          3.3420     0.8200     3.1130 h1         1 MDW       0.042700
     33 H37          3.5470    -0.9360     3.0520 h1         1 MDW       0.042700
     34 H29          1.8970    -0.0050     3.3400 ha         1 MDW       0.134000
     35 H30         -0.3130     0.7270     4.3630 h1         1 MDW       0.105700
     36 H38          1.4870    -1.2540     4.4750 hn         1 MDW       0.320500
     37 H39          1.6280    -3.1010     5.7890 ho         1 MDW       0.395000
     38 H31         -2.5290    -0.6400     0.3050 hc         1 MDW       0.063200
     39 H32         -2.5510     1.0190     0.9210 hc         1 MDW       0.063200
     40 H33         -2.6780    -1.5540     2.5160 h1         1 MDW       0.073200
     41 H34         -3.8910    -0.2590     2.4320 h1         1 MDW       0.073200
     42 H48         -5.4630    -0.1580     4.8680 ha         1 MDW       0.146500
     43 H42         -6.3510    -1.4890     6.7440 ha         1 MDW       0.147500
     44 H45         -6.8310    -2.9770     9.4140 h1         1 MDW       0.047700
     45 H46         -6.3090    -2.9970     7.7240 h1         1 MDW       0.047700
     46 H47         -7.0390    -1.5370     8.4070 h1         1 MDW       0.047700
     47 H43         -2.7720    -0.7320     8.9640 ha         1 MDW       0.147500
     48 H44         -1.8910     0.5940     7.0830 ha         1 MDW       0.146500
@<TRIPOS>BOND
     1     1     2 ar
     2     1    14 ar
     3     1    29 1
     4     2     3 1
     5     2     4 ar
     6     3    30 1
     7     4     5 1
     8     4     7 ar
     9     5     6 1
    10     6    31 1
    11     6    32 1
    12     6    33 1
    13     7     8 ar
    14     7    34 1
    15     8     9 1
    16     8    14 ar
    17     9    10 1
    18     9    17 1
    19     9    35 1
    20    10    11 2
    21    10    12 1
    22    12    13 1
    23    12    36 1
    24    13    37 1
    25    14    15 1
    26    15    16 1
    27    15    38 1
    28    15    39 1
    29    16    17 1
    30    16    40 1
    31    16    41 1
    32    17    18 1
    33    18    19 2
    34    18    20 2
    35    18    21 1
    36    21    22 ar
    37    21    28 ar
    38    22    23 ar
    39    22    42 1
    40    23    24 ar
    41    23    43 1
    42    24    25 1
    43    24    27 ar
    44    25    26 1
    45    26    44 1
    46    26    45 1
    47    26    46 1
    48    27    28 ar
    49    27    47 1
    50    28    48 1
@<TRIPOS>SUBSTRUCTURE
     1 MDW         1 TEMP              0 ****  ****    0 ROOT
