@<TRIPOS>MOLECULE
MDX
   35    34     1     0     0
SMALL
bcc


@<TRIPOS>ATOM
      1 O1          0.2120    0.9350    0.1040 o         1 MDX     -0.853300
      2 C11         1.1710    0.1120    0.0270 c         1 MDX      0.907600
      3 O2          1.5500   -0.6160    0.9890 o         1 MDX     -0.853300
      4 C10         1.9390    0.0010   -1.3020 c3        1 MDX     -0.194400
      5 C9          0.9950   -0.0750   -2.4760 c3        1 MDX     -0.065400
      6 C8          1.7300    0.0010   -3.7990 c3        1 MDX     -0.078400
      7 C7          0.7730   -0.0880   -4.9680 c3        1 MDX     -0.078400
      8 C6          1.5030   -0.0060   -6.2920 c3        1 MDX     -0.078400
      9 C5          0.5400   -0.0890   -7.4570 c3        1 MDX     -0.079400
     10 C4          1.2680   -0.0110   -8.7830 c3        1 MDX     -0.078400
     11 C3          0.2990   -0.0900   -9.9430 c3        1 MDX     -0.077400
     12 C2          1.0260   -0.0160  -11.2710 c3        1 MDX     -0.073400
     13 C1          0.0530   -0.0900  -12.4190 c3        1 MDX      0.015700
     14 S1          0.9930   -0.0050  -13.9210 sh        1 MDX     -0.389900
     15 H101        2.6000   -0.9010   -1.2730 hc        1 MDX      0.018700
     16 H102        2.5940    0.9050   -1.3950 hc        1 MDX      0.018700
     17 H91         0.4130   -1.0320   -2.4260 hc        1 MDX      0.044200
     18 H92         0.2550    0.7660   -2.3960 hc        1 MDX      0.044200
     19 H81         2.3020    0.9650   -3.8550 hc        1 MDX      0.026700
     20 H82         2.4790   -0.8310   -3.8620 hc        1 MDX      0.026700
     21 H71         0.0220    0.7430   -4.9000 hc        1 MDX      0.036700
     22 H72         0.2020   -1.0520   -4.9130 hc        1 MDX      0.036700
     23 H61         2.0760    0.9570   -6.3460 hc        1 MDX      0.035200
     24 H62         2.2510   -0.8390   -6.3610 hc        1 MDX      0.035200
     25 H51        -0.0350   -1.0510   -7.4000 hc        1 MDX      0.038200
     26 H52        -0.2060    0.7460   -7.3880 hc        1 MDX      0.038200
     27 H41         1.8460    0.9480   -8.8390 hc        1 MDX      0.039700
     28 H42         2.0100   -0.8490   -8.8540 hc        1 MDX      0.039700
     29 H31        -0.4410    0.7510   -9.8720 hc        1 MDX      0.039700
     30 H32        -0.2810   -1.0480   -9.8850 hc        1 MDX      0.039700
     31 H21         1.7640   -0.8590  -11.3430 hc        1 MDX      0.056700
     32 H22         1.6090    0.9420  -11.3280 hc        1 MDX      0.056700
     33 H11        -0.6740    0.7560  -12.3710 h1        1 MDX      0.058700
     34 H12        -0.5260   -1.0440  -12.3800 h1        1 MDX      0.058700
     35 HS1         0.0020   -0.0760  -14.7900 hs        1 MDX      0.193800
@<TRIPOS>BOND
     1    1    2 1   
     2    2    3 1   
     3    2    4 1   
     4    4    5 1   
     5    4   15 1   
     6    4   16 1   
     7    5    6 1   
     8    5   17 1   
     9    5   18 1   
    10    6    7 1   
    11    6   19 1   
    12    6   20 1   
    13    7    8 1   
    14    7   21 1   
    15    7   22 1   
    16    8    9 1   
    17    8   23 1   
    18    8   24 1   
    19    9   10 1   
    20    9   25 1   
    21    9   26 1   
    22   10   11 1   
    23   10   27 1   
    24   10   28 1   
    25   11   12 1   
    26   11   29 1   
    27   11   30 1   
    28   12   13 1   
    29   12   31 1   
    30   12   32 1   
    31   13   14 1   
    32   13   33 1   
    33   13   34 1   
    34   14   35 1   
@<TRIPOS>SUBSTRUCTURE
     1 MDX         1 TEMP              0 ****  ****    0 ROOT
