@<TRIPOS>MOLECULE
molecule
   35    34     1     0     0
SMALL
bcc


@<TRIPOS>ATOM
      1 O1           0.0000     0.0000     0.0000 o          1 MDX      -0.858300
      2 C11          1.2080     0.0000     0.0000 c          1 MDX       0.891600
      3 O2           1.8800     0.0000     1.1620 o          1 MDX      -0.858300
      4 C10          1.9620    -0.0060    -1.3050 c3         1 MDX      -0.183400
      5 C9           0.9680    -0.0120    -2.4680 c3         1 MDX      -0.063400
      6 C8           1.7320    -0.0190    -3.7930 c3         1 MDX      -0.088400
      7 C7           0.7380    -0.0240    -4.9550 c3         1 MDX      -0.081400
      8 C6           1.5030    -0.0300    -6.2800 c3         1 MDX      -0.083400
      9 C5           0.5090    -0.0360    -7.4440 c3         1 MDX      -0.082400
     10 C4           1.2740    -0.0430    -8.7690 c3         1 MDX      -0.081400
     11 C3           0.2790    -0.0480    -9.9310 c3         1 MDX      -0.080400
     12 C2           1.0440    -0.0550   -11.2560 c3         1 MDX      -0.067400
     13 C1           0.0490    -0.0600   -12.4190 c3         1 MDX       0.049700
     14 S1           0.9570    -0.0680   -13.9900 sh         1 MDX      -0.443900
     15 H101         2.5850    -0.8900    -1.3580 hc         1 MDX       0.026700
     16 H102         2.5840     0.8790    -1.3660 hc         1 MDX       0.026700
     17 H91          0.3450    -0.8960    -2.4060 hc         1 MDX       0.044700
     18 H92          0.3450     0.8730    -2.4150 hc         1 MDX       0.044700
     19 H81          2.3550    -0.9030    -3.8460 hc         1 MDX       0.028700
     20 H82          2.3550     0.8650    -3.8550 hc         1 MDX       0.028700
     21 H71          0.1150     0.8600    -4.9020 hc         1 MDX       0.038700
     22 H72          0.1160    -0.9090    -4.8940 hc         1 MDX       0.038700
     23 H61          2.1260    -0.9150    -6.3340 hc         1 MDX       0.036700
     24 H62          2.1260     0.8540    -6.3420 hc         1 MDX       0.036700
     25 H51         -0.1140    -0.9200    -7.3820 hc         1 MDX       0.039700
     26 H52         -0.1140     0.8490    -7.3910 hc         1 MDX       0.039700
     27 H41          1.8970     0.8410    -8.8310 hc         1 MDX       0.041700
     28 H42          1.8960    -0.9280    -8.8220 hc         1 MDX       0.041700
     29 H31         -0.3450    -0.9310    -9.8690 hc         1 MDX       0.041700
     30 H32         -0.3430     0.8380    -9.8780 hc         1 MDX       0.041700
     31 H21          1.6670     0.8290   -11.3180 hc         1 MDX       0.055700
     32 H22          1.6670    -0.9400   -11.3090 hc         1 MDX       0.055700
     33 H11         -0.5730    -0.9450   -12.3580 h1         1 MDX       0.054700
     34 H12         -0.5730     0.8240   -12.3660 h1         1 MDX       0.054700
     35 HS1          0.0940    -0.0730   -14.9990 hs         1 MDX       0.211800
@<TRIPOS>BOND
     1     1     2 1
     2     2     4 1
     3     2     3 1
     4     4     5 1
     5     4    15 1
     6     4    16 1
     7     5     6 1
     8     5    17 1
     9     5    18 1
    10     6     7 1
    11     6    19 1
    12     6    20 1
    13     7     8 1
    14     7    21 1
    15     7    22 1
    16     8     9 1
    17     8    23 1
    18     8    24 1
    19     9    10 1
    20     9    25 1
    21     9    26 1
    22    10    11 1
    23    10    27 1
    24    10    28 1
    25    11    12 1
    26    11    29 1
    27    11    30 1
    28    12    13 1
    29    12    31 1
    30    12    32 1
    31    13    14 1
    32    13    33 1
    33    13    34 1
    34    14    35 1
@<TRIPOS>SUBSTRUCTURE
     1 MDX         1 TEMP              0 ****  ****    0 ROOT
