@<TRIPOS>MOLECULE
MDY
   39    40     1     0     0
SMALL
bcc


@<TRIPOS>ATOM
      1 CAA          0.0000     0.0000     0.0000 c3         1 MDY       0.240700
      2 OAP          1.4290     0.0000     0.0000 os         1 MDY      -0.298900
      3 CAW          2.0450     0.0000     1.2110 ca         1 MDY       0.163100
      4 CAJ          1.2930     0.0010     2.3740 ca         1 MDY      -0.212000
      5 CAH          1.9210     0.0020     3.6060 ca         1 MDY      -0.054000
      6 CAI          3.3020     0.0020     3.6850 ca         1 MDY      -0.145000
      7 CAK          4.0640     0.0010     2.5330 ca         1 MDY      -0.055000
      8 CAX          3.4410    -0.0060     1.2880 cp         1 MDY      -0.075000
      9 CAU          4.2560    -0.0130     0.0480 cp         1 MDY      -0.025000
     10 CAN          5.2910     0.9060    -0.1120 ca         1 MDY      -0.078000
     11 CAT          6.0470     0.8980    -1.2660 ca         1 MDY      -0.063600
     12 ClAF         7.3370     2.0420    -1.4670 cl         1 MDY      -0.026400
     13 CAL          3.9900    -0.9430    -0.9560 ca         1 MDY      -0.060000
     14 CAM          4.7490    -0.9480    -2.1080 ca         1 MDY      -0.114000
     15 CAV          5.7770    -0.0280    -2.2690 ca         1 MDY      -0.088400
     16 NAO          6.5450    -0.0360    -3.4370 ns         1 MDY      -0.022100
     17 CAR          6.0310    -0.5380    -4.5780 c          1 MDY       0.595300
     18 OAD          4.8670    -0.8910    -4.6160 o          1 MDY      -0.622100
     19 CAS          6.8760    -0.6580    -5.7740 ce         1 MDY      -0.149900
     20 CAG          8.2460    -0.2420    -5.7280 cg         1 MDY       0.197500
     21 NAC          9.3320     0.0910    -5.7120 n1         1 MDY      -0.381800
     22 CAQ          6.3560    -1.1660    -6.9280 c2         1 MDY       0.222900
     23 CAB          7.2230    -1.2900    -8.1540 c3         1 MDY       0.002100
     24 OAE          5.0710    -1.5560    -6.9710 oh         1 MDY      -0.458100
     25 HAA         -0.3610    -0.8850     0.5100 h1         1 MDY      -0.001633
     26 HAAA        -0.3610     0.0010    -1.0210 h1         1 MDY      -0.001633
     27 HAAB        -0.3610     0.8840     0.5120 h1         1 MDY      -0.001633
     28 HAJ          0.2110     0.0010     2.3200 ha         1 MDY       0.121000
     29 HAH          1.3320     0.0020     4.5150 ha         1 MDY       0.100000
     30 HAI          3.7900     0.0030     4.6520 ha         1 MDY       0.106000
     31 HAK          5.1450     0.0010     2.5990 ha         1 MDY       0.109000
     32 HAN          5.4780     1.6490     0.6540 ha         1 MDY       0.120000
     33 HAL          3.1880    -1.6600    -0.8310 ha         1 MDY       0.116000
     34 HAM          4.5430    -1.6700    -2.8890 ha         1 MDY       0.155000
     35 HNAO         7.5320     0.1190    -3.3880 hn         1 MDY       0.177500
     36 HAB          6.6710    -1.7990    -8.9360 hc         1 MDY       0.029033
     37 HABA         8.1130    -1.8580    -7.9120 hc         1 MDY       0.029033
     38 HABB         7.5070    -0.3020    -8.4970 hc         1 MDY       0.029033
     39 HOAE         5.0290    -2.4970    -7.0100 ho         1 MDY       0.419000
@<TRIPOS>BOND
     1     1     2 1   
     2     1    25 1   
     3     1    26 1   
     4     1    27 1   
     5     2     3 1   
     6     3     4 ar  
     7     3     8 ar  
     8     4     5 ar  
     9     4    28 1   
    10     5     6 ar  
    11     5    29 1   
    12     6     7 ar  
    13     6    30 1   
    14     7     8 ar  
    15     7    31 1   
    16     8     9 1   
    17     9    10 ar  
    18     9    13 ar  
    19    10    11 ar  
    20    10    32 1   
    21    11    12 1   
    22    11    15 ar  
    23    13    14 ar  
    24    13    33 1   
    25    14    15 ar  
    26    14    34 1   
    27    15    16 1   
    28    16    17 1   
    29    16    35 1   
    30    17    18 2   
    31    17    19 1   
    32    19    20 1   
    33    19    22 2   
    34    20    21 3   
    35    22    23 1   
    36    22    24 1   
    37    23    36 1   
    38    23    37 1   
    39    23    38 1   
    40    24    39 1   
@<TRIPOS>SUBSTRUCTURE
     1 MDY         1 TEMP              0 ****  ****    0 ROOT
