@<TRIPOS>MOLECULE
molecule
   39    40     1     0     0
SMALL
bcc


@<TRIPOS>ATOM
      1 CAA          0.0000     0.0000     0.0000 c3         1 MDY       0.121700
      2 OAP          1.4290     0.0000     0.0000 os         1 MDY      -0.320900
      3 CAW          2.0450     0.0000     1.2110 ca         1 MDY       0.156100
      4 CAJ          1.2930     0.0010     2.3740 ca         1 MDY      -0.225000
      5 CAH          1.9210     0.0020     3.6060 ca         1 MDY      -0.083000
      6 CAI          3.3020     0.0020     3.6850 ca         1 MDY      -0.168000
      7 CAK          4.0640     0.0010     2.5330 ca         1 MDY      -0.079000
      8 CAX          3.4410    -0.0060     1.2880 cp         1 MDY      -0.075000
      9 CAU          4.2560    -0.0130     0.0480 cp         1 MDY      -0.012000
     10 CAN          5.2910     0.9060    -0.1120 ca         1 MDY      -0.119000
     11 CAT          6.0470     0.8980    -1.2660 ca         1 MDY       0.054400
     12 ClAF         7.3370     2.0420    -1.4670 cl         1 MDY      -0.092400
     13 CAL          3.9900    -0.9430    -0.9560 ca         1 MDY      -0.099000
     14 CAM          4.7490    -0.9480    -2.1080 ca         1 MDY      -0.130000
     15 CAV          5.7770    -0.0280    -2.2690 ca         1 MDY      -0.003400
     16 NAO          6.5450    -0.0360    -3.4370 ns         1 MDY      -0.367100
     17 CAR          6.0310    -0.5380    -4.5780 c          1 MDY       0.617300
     18 OAD          4.8670    -0.8910    -4.6160 o          1 MDY      -0.571100
     19 CAS          6.8760    -0.6580    -5.7740 ce         1 MDY      -0.154900
     20 CAG          8.2460    -0.2420    -5.7280 cg         1 MDY       0.205500
     21 NAC          9.3380     0.0690    -5.6910 n1         1 MDY      -0.352800
     22 CAQ          6.3560    -1.1660    -6.9280 c2         1 MDY       0.204900
     23 CAB          7.2230    -1.2900    -8.1540 c3         1 MDY      -0.106900
     24 OAE          5.0710    -1.5560    -6.9710 oh         1 MDY      -0.473100
     25 HAA         -0.3610    -1.0210     0.0170 h1         1 MDY       0.044033
     26 HAAA        -0.3610     0.5250     0.8760 h1         1 MDY       0.044033
     27 HAAB        -0.3610     0.4960    -0.8930 h1         1 MDY       0.044033
     28 HAJ          0.2110     0.0010     2.3200 ha         1 MDY       0.139000
     29 HAH          1.3320     0.0020     4.5150 ha         1 MDY       0.131000
     30 HAI          3.7900     0.0030     4.6520 ha         1 MDY       0.133000
     31 HAK          5.1450     0.0010     2.5990 ha         1 MDY       0.140000
     32 HAN          5.5350     1.5910     0.6910 ha         1 MDY       0.149000
     33 HAL          3.1880    -1.6600    -0.8310 ha         1 MDY       0.147000
     34 HAM          4.5430    -1.6700    -2.8890 ha         1 MDY       0.173000
     35 HNAO         7.2040    -0.7720    -3.5970 hn         1 MDY       0.280500
     36 HAB          7.5710    -0.3080    -8.4510 hc         1 MDY       0.069033
     37 HABA         8.0740    -1.9230    -7.9330 hc         1 MDY       0.069033
     38 HABB         6.6470    -1.7280    -8.9610 hc         1 MDY       0.069033
     39 HOAE         4.6160    -1.0660    -7.6360 ho         1 MDY       0.442000
@<TRIPOS>BOND
     1     1     2 1
     2     2     3 1
     3     3     4 ar
     4     3     8 ar
     5     4     5 ar
     6     5     6 ar
     7     6     7 ar
     8     7     8 ar
     9     8     9 1
    10     9    10 ar
    11     9    13 ar
    12    10    11 ar
    13    11    12 1
    14    11    15 ar
    15    13    14 ar
    16    14    15 ar
    17    15    16 1
    18    16    17 1
    19    17    18 2
    20    17    19 1
    21    19    20 1
    22    19    22 2
    23    20    21 3
    24    22    23 1
    25    22    24 1
    26     1    25 1
    27     1    26 1
    28     1    27 1
    29     4    28 1
    30     5    29 1
    31     6    30 1
    32     7    31 1
    33    10    32 1
    34    13    33 1
    35    14    34 1
    36    16    35 1
    37    23    36 1
    38    23    37 1
    39    23    38 1
    40    24    39 1
@<TRIPOS>SUBSTRUCTURE
     1 MDY         1 TEMP              0 ****  ****    0 ROOT
