@<TRIPOS>MOLECULE
molecule
   50    49     1     0     0
SMALL
bcc


@<TRIPOS>ATOM
      1 O43          0.0000     0.0000     0.0000 o          1 MDZ      -0.829300
      2 C31          1.2240     0.0000     0.0000 c          1 MDZ       0.901600
      3 O42          1.9580    -0.0280    -1.1430 o          1 MDZ      -0.829300
      4 C30          2.0940     0.0000     1.2440 c3         1 MDZ       0.035100
      5 O29          1.4110    -0.7690     2.1980 os         1 MDZ      -0.383900
      6 C13          2.2090    -1.1670     3.2890 c          1 MDZ       0.608100
      7 O18          3.4150    -1.3650     3.2080 o          1 MDZ      -0.515000
      8 C12          1.3670    -1.3720     4.5380 c3         1 MDZ       0.075700
      9 C16          1.3390    -0.1070     5.4130 c3         1 MDZ       0.056400
     10 S17          3.0440     0.4000     5.8510 sh         1 MDZ      -0.422900
     11 C25          0.5250    -0.2520     6.7000 c3         1 MDZ      -0.099100
     12 N11          1.8970    -2.5350     5.2090 ns         1 MDZ      -0.586900
     13 C10          1.5070    -3.8220     4.8710 c          1 MDZ       0.672100
     14 O15          0.6950    -4.1040     3.9940 o          1 MDZ      -0.567100
     15 C7           2.2080    -4.8630     5.7260 c3         1 MDZ      -0.159400
     16 C4           1.7910    -6.2890     5.3690 c3         1 MDZ      -0.074400
     17 C3           2.4830    -7.3120     6.2780 c3         1 MDZ      -0.082400
     18 C2           2.0780    -8.7710     6.0220 c3         1 MDZ      -0.007500
     19 N14          2.4730    -9.2090     4.6840 nz         1 MDZ      -0.796600
     20 C1           0.5840    -8.9850     6.1710 c          1 MDZ       0.869600
     21 O20          0.1850    -8.6850     7.4330 o          1 MDZ      -0.777800
     22 O19         -0.1790    -9.3830     5.3030 o          1 MDZ      -0.777800
     23 C32          2.3400     1.4270     1.7770 c3         1 MDZ      -0.088700
     24 C37          3.0670     2.3000     0.7470 c3         1 MDZ      -0.078100
     25 C33          1.0250     2.1160     2.1680 c3         1 MDZ      -0.078100
     26 H30          3.0450    -0.4680     1.0190 h1         1 MDZ       0.067700
     27 H12          0.3520    -1.5920     4.2300 h1         1 MDZ       0.116700
     28 H16          0.8950     0.6890     4.8280 h1         1 MDZ       0.095700
     29 H251         1.1610    -0.6390     7.4870 hc         1 MDZ       0.045367
     30 H252         0.1380     0.7170     6.9920 hc         1 MDZ       0.045367
     31 H253        -0.2990    -0.9340     6.5310 hc         1 MDZ       0.045367
     32 H11          2.5670    -2.4080     5.9420 hn         1 MDZ       0.325500
     33 H7C1         3.2780    -4.7660     5.5870 hc         1 MDZ       0.060200
     34 H7C2         1.9710    -4.6780     6.7670 hc         1 MDZ       0.060200
     35 H4C1         0.7180    -6.3830     5.4810 hc         1 MDZ       0.063700
     36 H4C2         2.0600    -6.4900     4.3390 hc         1 MDZ       0.063700
     37 H3C1         3.5540    -7.2250     6.1390 hc         1 MDZ       0.061700
     38 H3C2         2.2500    -7.0680     7.3080 hc         1 MDZ       0.061700
     39 H2           2.5850    -9.3960     6.7480 hx         1 MDZ       0.092700
     40 H141         1.8700    -8.7900     4.0040 hn         1 MDZ       0.438133
     41 H142         3.4180    -8.9320     4.5080 hn         1 MDZ       0.438133
     42 H32          2.9620     1.3560     2.6610 hc         1 MDZ       0.025700
     43 H371         2.4090     2.4930    -0.0910 hc         1 MDZ       0.030700
     44 H372         3.3520     3.2390     1.2070 hc         1 MDZ       0.030700
     45 H373         3.9530     1.7840     0.3990 hc         1 MDZ       0.030700
     46 H331         0.3200     1.3740     2.5220 hc         1 MDZ       0.030700
     47 H332         0.6120     2.6240     1.3050 hc         1 MDZ       0.030700
     48 H333         1.2150     2.8370     2.9540 hc         1 MDZ       0.030700
     49 HS1          2.9990     1.4410     6.6730 hs         1 MDZ       0.205800
     50 H143         2.3990   -10.2050     4.6240 hn         1 MDZ       0.438133
@<TRIPOS>BOND
     1     1     2 1
     2     2     3 1
     3     2     4 1
     4     4     5 1
     5     4    23 1
     6     4    26 1
     7     5     6 1
     8     6     7 2
     9     6     8 1
    10     8     9 1
    11     8    12 1
    12     8    27 1
    13     9    10 1
    14     9    11 1
    15     9    28 1
    16    11    29 1
    17    11    30 1
    18    11    31 1
    19    12    13 1
    20    12    32 1
    21    13    14 2
    22    13    15 1
    23    15    16 1
    24    15    33 1
    25    15    34 1
    26    16    17 1
    27    16    35 1
    28    16    36 1
    29    17    18 1
    30    17    37 1
    31    17    38 1
    32    18    19 1
    33    18    20 1
    34    18    39 1
    35    19    40 1
    36    19    41 1
    37    20    21 1
    38    20    22 1
    39    23    24 1
    40    23    25 1
    41    23    42 1
    42    24    43 1
    43    24    44 1
    44    24    45 1
    45    25    46 1
    46    25    47 1
    47    25    48 1
    48    49    10 1
    49    50    19 1
@<TRIPOS>SUBSTRUCTURE
     1 MDZ         1 TEMP              0 ****  ****    0 ROOT
