@<TRIPOS>MOLECULE
ME1
   43    45     1     0     0
SMALL
bcc


@<TRIPOS>ATOM
      1 C1           0.0000     0.0000     0.0000 cc         1 ME1       0.008300
      2 C2           1.3770     0.0000     0.0000 cd         1 ME1      -0.128000
      3 C3           1.9130     0.0000     1.3200 cd         1 ME1      -0.023000
      4 C9          -0.1600     0.0240     5.8630 c3         1 ME1       0.032000
      5 C10         -0.1590    -1.3750     6.4550 c3         1 ME1       0.021000
      6 C12         -1.2750    -2.9590     4.8640 c          1 ME1       0.602700
      7 C14         -2.5020    -3.6650     4.5360 ca         1 ME1      -0.166600
      8 C15         -2.7810    -4.0010     3.2110 ca         1 ME1      -0.039500
      9 C16         -3.9600    -4.6770     2.8950 ca         1 ME1      -0.117000
     10 C19         -3.4030    -4.0060     5.5450 ca         1 ME1      -0.039500
     11 C21         -7.2350    -5.5380     4.3490 cc         1 ME1      -0.131400
     12 C22         -8.3910    -6.1530     4.0830 cd         1 ME1      -0.186000
     13 C24         -7.4300    -7.2620     2.1800 cc         1 ME1      -0.223200
     14 C4           0.9190     0.0010     2.2210 cc         1 ME1      -0.106700
     15 S5          -0.6420     0.0010     1.5880 ss         1 ME1      -0.191800
     16 C6           1.0560    -0.0010     3.7000 c          1 ME1       0.649700
     17 O7           2.1790     0.0190     4.1980 o          1 ME1      -0.616100
     18 N8          -0.1290     0.0010     4.4250 ns         1 ME1      -0.209900
     19 N11         -1.2910    -2.1560     6.0110 ns         1 ME1      -0.220900
     20 O13         -0.2720    -3.0600     4.1330 o          1 ME1      -0.623100
     21 C17         -4.8600    -5.0170     3.9050 ca         1 ME1      -0.079400
     22 C18         -4.5820    -4.6820     5.2290 ca         1 ME1      -0.117000
     23 N20         -6.0860    -5.7190     3.5760 n          1 ME1       0.159800
     24 C23         -8.4900    -7.0360     2.9600 cd         1 ME1      -0.038000
     25 C25         -6.1150    -6.6150     2.4760 c          1 ME1       0.611700
     26 O26         -5.1630    -6.9460     1.7710 o          1 ME1      -0.647500
     27 Cl27        -1.0520    -0.0000    -1.3530 cl         1 ME1       0.061600
     28 H2           1.9190    -0.4830    -0.8040 ha         1 ME1       0.138000
     29 H3           2.8350     0.5280     1.5300 ha         1 ME1       0.146000
     30 H91          0.7090     0.5600     6.2250 h1         1 ME1       0.028700
     31 H92         -1.0540     0.5430     6.1870 h1         1 ME1       0.028700
     32 H101        -0.1870    -1.2990     7.5360 h1         1 ME1       0.038700
     33 H102         0.7530    -1.8800     6.1620 h1         1 ME1       0.038700
     34 H15         -2.0820    -3.7370     2.4270 ha         1 ME1       0.118500
     35 H16         -4.1760    -4.9380     1.8660 ha         1 ME1       0.129500
     36 H19         -3.1880    -3.7460     6.5740 ha         1 ME1       0.118500
     37 H22         -9.2550    -5.9770     4.7110 ha         1 ME1       0.121000
     38 H24         -7.5160    -7.9440     1.3430 ha         1 ME1       0.133000
     39 HN8         -0.9970    -0.0130     3.9260 hn         1 ME1       0.186500
     40 HN11        -2.1320    -2.1220     6.5520 hn         1 ME1       0.172500
     41 H18         -5.2810    -4.9460     6.0130 ha         1 ME1       0.129500
     42 H23         -9.4330    -7.5220     2.7400 ha         1 ME1       0.105000
     43 H21         -7.1860    -4.8750     5.2050 h4         1 ME1       0.126000
@<TRIPOS>BOND
     1     1     2 2   
     2     1    15 1   
     3     1    27 1   
     4     2     3 1   
     5     2    28 1   
     6     3    14 2   
     7     3    29 1   
     8     4     5 1   
     9     4    18 1   
    10     4    30 1   
    11     4    31 1   
    12     5    19 1   
    13     5    32 1   
    14     5    33 1   
    15     6     7 1   
    16     6    19 1   
    17     6    20 2   
    18     7     8 ar  
    19     7    10 ar  
    20     8     9 ar  
    21     8    34 1   
    22     9    21 ar  
    23     9    35 1   
    24    10    22 ar  
    25    10    36 1   
    26    11    12 2   
    27    11    23 1   
    28    11    43 1   
    29    12    24 1   
    30    12    37 1   
    31    13    24 2   
    32    13    25 1   
    33    13    38 1   
    34    14    15 1   
    35    14    16 1   
    36    16    17 2   
    37    16    18 1   
    38    18    39 1   
    39    19    40 1   
    40    21    22 ar  
    41    21    23 1   
    42    22    41 1   
    43    23    25 1   
    44    24    42 1   
    45    25    26 2   
@<TRIPOS>SUBSTRUCTURE
     1 ME1         1 TEMP              0 ****  ****    0 ROOT
