@<TRIPOS>MOLECULE
ME2
   26    25     1     0     0
SMALL
bcc


@<TRIPOS>ATOM
      1 C7          0.1250    1.2910   -0.0320 c3        1 ME2     -0.097100
      2 C6          1.2240    0.2560   -0.0630 c3        1 ME2      0.131400
      3 O3          1.9820    0.4180    1.1350 os        1 ME2     -0.428600
      4 C5          3.0700   -0.4990    1.2150 c3        1 ME2      0.126400
      5 C4          3.6860   -0.3200    2.5990 c3        1 ME2      0.127400
      6 O2          3.3890   -1.5080    3.3300 os        1 ME2     -0.429600
      7 C3          3.7680   -1.4060    4.7010 c3        1 ME2      0.127400
      8 C2          3.5630   -2.7890    5.3100 c3        1 ME2      0.123400
      9 O1          4.8630   -3.3050    5.5910 os        1 ME2     -0.425600
     10 C1          4.8300   -4.6500    6.0340 c3        1 ME2      0.117700
     11 H71        -0.4980    1.1970   -0.9530 hc        1 ME2      0.045033
     12 H72        -0.5220    1.1430    0.8660 hc        1 ME2      0.045033
     13 H73         0.5580    2.3180    0.0150 hc        1 ME2      0.045033
     14 H61         1.8950    0.4050   -0.9520 h1        1 ME2      0.024700
     15 H62         0.8000   -0.7840   -0.1000 h1        1 ME2      0.024700
     16 H51         3.8190   -0.2530    0.4170 h1        1 ME2      0.041700
     17 H52         2.7040   -1.5510    1.0750 h1        1 ME2      0.041700
     18 H41         4.7990   -0.2030    2.5220 h1        1 ME2      0.043700
     19 H42         3.2480    0.5750    3.1170 h1        1 ME2      0.043700
     20 H31         3.1120   -0.6510    5.2090 h1        1 ME2      0.043700
     21 H32         4.8420   -1.0890    4.7850 h1        1 ME2      0.043700
     22 H21         2.9820   -2.7150    6.2670 h1        1 ME2      0.042700
     23 H22         3.0240   -3.4640    4.5940 h1        1 ME2      0.042700
     24 H11         5.9020   -4.9100    6.2200 h1        1 ME2      0.032700
     25 H12         4.3960   -5.3150    5.2470 h1        1 ME2      0.032700
     26 H13         4.2350   -4.7410    6.9770 h1        1 ME2      0.032700
@<TRIPOS>BOND
     1    1    2 1   
     2    1   11 1   
     3    1   12 1   
     4    1   13 1   
     5    2    3 1   
     6    2   14 1   
     7    2   15 1   
     8    3    4 1   
     9    4    5 1   
    10    4   16 1   
    11    4   17 1   
    12    5    6 1   
    13    5   18 1   
    14    5   19 1   
    15    6    7 1   
    16    7    8 1   
    17    7   20 1   
    18    7   21 1   
    19    8    9 1   
    20    8   22 1   
    21    8   23 1   
    22    9   10 1   
    23   10   24 1   
    24   10   25 1   
    25   10   26 1   
@<TRIPOS>SUBSTRUCTURE
     1 ME2         1 TEMP              0 ****  ****    0 ROOT
