@<TRIPOS>MOLECULE
molecule
   26    25     1     0     0
SMALL
bcc


@<TRIPOS>ATOM
      1 C7           0.0000     0.0000     0.0000 c3         1 ME2      -0.092100
      2 C6           1.5290     0.0000     0.0000 c3         1 ME2       0.122400
      3 O3           2.0070     0.0000     1.3460 os         1 ME2      -0.397600
      4 C5           3.4330     0.0000     1.2790 c3         1 ME2       0.128400
      5 C4           4.0110    -0.0000     2.6970 c3         1 ME2       0.125400
      6 O2           3.5670    -1.1680     3.3900 os         1 ME2      -0.381600
      7 C3           4.1370    -1.1100     4.7000 c3         1 ME2       0.125400
      8 C2           3.6980    -2.3370     5.5010 c3         1 ME2       0.126400
      9 O1           4.1450    -3.5210     4.8400 os         1 ME2      -0.396600
     10 C1           3.7070    -4.6270     5.6320 c3         1 ME2       0.114700
     11 H71         -0.3610    -0.9120     0.4590 hc         1 ME2       0.043367
     12 H72         -0.3610     0.0580    -1.0200 hc         1 ME2       0.043367
     13 H73         -0.3610     0.8540     0.5600 hc         1 ME2       0.043367
     14 H61          1.8900    -0.8840    -0.5110 h1         1 ME2       0.022200
     15 H62          1.8900     0.8840    -0.5110 h1         1 ME2       0.022200
     16 H51          3.7700     0.8850     0.7520 h1         1 ME2       0.033200
     17 H52          3.7700    -0.8840     0.7520 h1         1 ME2       0.033200
     18 H41          3.6730     0.8830     3.2240 h1         1 ME2       0.031700
     19 H42          5.0930     0.0000     2.6460 h1         1 ME2       0.031700
     20 H31          3.7990    -0.2110     5.2010 h1         1 ME2       0.031700
     21 H32          5.2180    -1.0960     4.6230 h1         1 ME2       0.031700
     22 H21          4.1300    -2.2930     6.4940 h1         1 ME2       0.033700
     23 H22          2.6180    -2.3510     5.5770 h1         1 ME2       0.033700
     24 H11          4.1390    -4.5540     6.6230 h1         1 ME2       0.030033
     25 H12          4.0240    -5.5520     5.1670 h1         1 ME2       0.030033
     26 H13          2.6270    -4.6120     5.7080 h1         1 ME2       0.030033
@<TRIPOS>BOND
     1     1     2 1
     2     1    11 1
     3     1    12 1
     4     1    13 1
     5     2     3 1
     6     2    14 1
     7     2    15 1
     8     3     4 1
     9     4     5 1
    10     4    16 1
    11     4    17 1
    12     5     6 1
    13     5    18 1
    14     5    19 1
    15     6     7 1
    16     7     8 1
    17     7    20 1
    18     7    21 1
    19     8     9 1
    20     8    22 1
    21     8    23 1
    22     9    10 1
    23    10    24 1
    24    10    25 1
    25    10    26 1
@<TRIPOS>SUBSTRUCTURE
     1 ME2         1 TEMP              0 ****  ****    0 ROOT
