@<TRIPOS>MOLECULE
molecule
   60    64     1     0     0
SMALL
bcc


@<TRIPOS>ATOM
      1 C1           0.0000     0.0000     0.0000 c3         1 ME4       0.105700
      2 C2           1.5370     0.0000     0.0000 c3         1 ME4      -0.094400
      3 C3           2.1390     0.0000     1.4060 c3         1 ME4      -0.080400
      4 C10         -4.2500    -1.6790     0.1810 ca         1 ME4      -0.112600
      5 C11         -4.7310    -1.4770     1.4620 ca         1 ME4      -0.143000
      6 C12         -6.1200    -1.3680     1.5950 ca         1 ME4      -0.042200
      7 C13         -6.9900    -1.4550     0.5070 ca         1 ME4      -0.085800
      8 C14         -8.3110    -1.3010     1.0150 cc         1 ME4      -0.044800
      9 C15         -8.2180    -1.1260     2.3770 cd         1 ME4      -0.097100
     10 C19         -5.0640    -1.7740    -0.9270 ca         1 ME4      -0.111000
     11 C24         -0.8640     4.8190    -0.5140 ca         1 ME4      -0.074500
     12 C27         -2.3450     4.7940     1.8500 ca         1 ME4      -0.144500
     13 N29         -2.5140     7.2510     1.8020 n          1 ME4      -0.272200
     14 C30         -2.8030     8.3480     0.9860 cc         1 ME4       0.014600
     15 C31         -3.2420     9.5140     1.4700 cd         1 ME4      -0.231000
     16 C32         -3.4430     9.6750     2.8780 cd         1 ME4      -0.060000
     17 C33         -3.1830     8.6730     3.7200 cc         1 ME4      -0.242200
     18 C34         -2.6550     7.3690     3.2100 c          1 ME4       0.696700
     19 C4           1.5880    -1.1410     2.2550 c3         1 ME4      -0.076400
     20 C5           0.0600    -1.1470     2.2900 c3         1 ME4      -0.089400
     21 C6          -0.5330    -1.1590     0.8730 c3         1 ME4       0.105700
     22 N7          -1.9970    -1.1540     0.9350 ns         1 ME4      -0.590900
     23 O9          -2.3490    -2.4310    -0.9690 o          1 ME4      -0.588100
     24 N16         -6.8920    -1.1680     2.7170 na         1 ME4      -0.178400
     25 Cl17        -9.7400    -1.3300     0.0940 cl         1 ME4      -0.068400
     26 C18         -6.4510    -1.6620    -0.7780 ca         1 ME4      -0.071000
     27 N20         -0.4920     1.3140     0.4240 ns         1 ME4      -0.585900
     28 O22         -0.4820     2.2970    -1.6760 o          1 ME4      -0.590100
     29 C23         -1.1680     3.6340     0.1240 ca         1 ME4      -0.154600
     30 C25         -1.3100     6.0180     0.0420 ca         1 ME4      -0.144500
     31 C26         -2.0510     6.0060     1.2240 ca         1 ME4       0.061600
     32 C28         -1.8980     3.5950     1.2940 ca         1 ME4      -0.074500
     33 O35         -2.3490     6.5260     4.0530 o          1 ME4      -0.618500
     34 H1          -0.3320    -0.1720    -1.0170 h1         1 ME4       0.090700
     35 H21          1.8840    -0.8820    -0.5250 hc         1 ME4       0.056200
     36 H22          1.8840     0.8820    -0.5250 hc         1 ME4       0.056200
     37 H31A         1.9050     0.9410     1.8890 hc         1 ME4       0.044200
     38 H32A         3.2140    -0.1060     1.3290 hc         1 ME4       0.044200
     39 H11         -4.1240    -1.7460     2.3180 ha         1 ME4       0.139000
     40 H15         -8.9590    -1.5680     3.0320 h4         1 ME4       0.182000
     41 H19         -4.6420    -2.0420    -1.8880 ha         1 ME4       0.164000
     42 H24         -0.2880     4.8180    -1.4320 ha         1 ME4       0.150000
     43 H27         -2.9200     4.7850     2.7680 ha         1 ME4       0.152000
     44 H30         -2.6750     8.2450    -0.0850 h4         1 ME4       0.156000
     45 H31         -3.4540    10.3350     0.7950 ha         1 ME4       0.151000
     46 H32         -3.8110    10.6180     3.2630 ha         1 ME4       0.137000
     47 H33         -3.3250     8.8150     4.7840 ha         1 ME4       0.162000
     48 H41          1.9610    -1.0380     3.2660 hc         1 ME4       0.045700
     49 H42          1.9320    -2.0820     1.8420 hc         1 ME4       0.045700
     50 H51         -0.2840    -0.2610     2.8090 hc         1 ME4       0.042700
     51 H52         -0.2770    -2.0290     2.8210 hc         1 ME4       0.042700
     52 H6          -0.2260    -2.0850     0.4020 h1         1 ME4       0.084700
     53 HN7         -2.4470    -0.6660     1.6840 hn         1 ME4       0.315500
     54 HN16        -6.5360    -1.0680     3.6470 hn         1 ME4       0.302700
     55 H18         -7.1020    -1.7350    -1.6410 ha         1 ME4       0.147000
     56 HN20        -0.6920     1.4640     1.3930 hn         1 ME4       0.311500
     57 H25         -1.0810     6.9580    -0.4440 ha         1 ME4       0.152000
     58 H28         -2.1220     2.6490     1.7730 ha         1 ME4       0.150000
     59 C8          -2.7810    -1.8010    -0.0070 c          1 ME4       0.677700
     60 C21         -0.6900     2.3580    -0.4670 c          1 ME4       0.678700
@<TRIPOS>BOND
     1     1     2 1
     2     1    27 1
     3     1    21 1
     4     1    34 1
     5     2     3 1
     6     2    35 1
     7     2    36 1
     8     3    19 1
     9     3    37 1
    10     3    38 1
    11    59    23 2
    12    59    22 1
    13    59     4 1
    14     4    10 ar
    15     4     5 ar
    16     5     6 ar
    17     5    39 1
    18     6     7 ar
    19     6    24 1
    20     7    26 ar
    21     7     8 1
    22     8    25 1
    23     8     9 2
    24     9    24 1
    25     9    40 1
    26    10    26 ar
    27    10    41 1
    28    60    29 1
    29    60    27 1
    30    60    28 2
    31    11    30 ar
    32    11    29 ar
    33    11    42 1
    34    12    31 ar
    35    12    32 ar
    36    12    43 1
    37    13    18 1
    38    13    14 1
    39    13    31 1
    40    14    15 2
    41    14    44 1
    42    15    16 1
    43    15    45 1
    44    16    17 2
    45    16    46 1
    46    17    18 1
    47    17    47 1
    48    18    33 2
    49    19    20 1
    50    19    48 1
    51    19    49 1
    52    20    21 1
    53    20    50 1
    54    20    51 1
    55    21    22 1
    56    21    52 1
    57    22    53 1
    58    24    54 1
    59    26    55 1
    60    27    56 1
    61    29    32 ar
    62    30    31 ar
    63    30    57 1
    64    32    58 1
@<TRIPOS>SUBSTRUCTURE
     1 ME4         1 TEMP              0 ****  ****    0 ROOT
