@<TRIPOS>MOLECULE
ME4
   60    64     1     0     0
SMALL
bcc


@<TRIPOS>ATOM
      1 C1           0.0000     0.0000     0.0000 c3         1 ME4       0.011700
      2 C2           1.5370     0.0000     0.0000 c3         1 ME4      -0.038400
      3 C3           2.1390     0.0000     1.4060 c3         1 ME4      -0.024400
      4 C10         -4.2500    -1.6790     0.1810 ca         1 ME4      -0.128600
      5 C11         -4.7310    -1.4770     1.4620 ca         1 ME4      -0.108000
      6 C12         -6.1200    -1.3680     1.5950 ca         1 ME4      -0.230200
      7 C13         -6.9900    -1.4550     0.5070 ca         1 ME4      -0.086800
      8 C14         -8.3110    -1.3010     1.0150 cc         1 ME4      -0.100800
      9 C15         -8.2180    -1.1260     2.3770 cd         1 ME4      -0.273100
     10 C19         -5.0640    -1.7740    -0.9270 ca         1 ME4      -0.082000
     11 C24         -0.8640     4.8190    -0.5140 ca         1 ME4      -0.045000
     12 C27         -2.3450     4.7940     1.8500 ca         1 ME4      -0.114000
     13 N29         -2.5140     7.2510     1.8020 n          1 ME4       0.162800
     14 C30         -2.8030     8.3480     0.9860 cc         1 ME4      -0.127400
     15 C31         -3.2420     9.5140     1.4700 cd         1 ME4      -0.188000
     16 C32         -3.4430     9.6750     2.8780 cd         1 ME4      -0.035000
     17 C33         -3.1830     8.6730     3.7200 cc         1 ME4      -0.226200
     18 C34         -2.6550     7.3690     3.2100 c          1 ME4       0.612700
     19 C4           1.5880    -1.1410     2.2550 c3         1 ME4      -0.016400
     20 C5           0.0600    -1.1470     2.2900 c3         1 ME4      -0.029400
     21 C6          -0.5330    -1.1590     0.8730 c3         1 ME4       0.012700
     22 N7          -1.9970    -1.1540     0.9350 ns         1 ME4      -0.222900
     23 O9          -2.3490    -2.4310    -0.9690 o          1 ME4      -0.621100
     24 N16         -6.8920    -1.1680     2.7170 na         1 ME4       0.365600
     25 Cl17        -9.7400    -1.3300     0.0940 cl         1 ME4       0.016600
     26 C18         -6.4510    -1.6620    -0.7780 ca         1 ME4      -0.033000
     27 N20         -0.4920     1.3140     0.4240 ns         1 ME4      -0.216900
     28 O22         -0.4820     2.2970    -1.6760 o          1 ME4      -0.624100
     29 C23         -1.1680     3.6340     0.1240 ca         1 ME4      -0.165600
     30 C25         -1.3100     6.0180     0.0420 ca         1 ME4      -0.114000
     31 C26         -2.0510     6.0060     1.2240 ca         1 ME4      -0.087400
     32 C28         -1.8980     3.5950     1.2940 ca         1 ME4      -0.045000
     33 O35         -2.3490     6.5260     4.0530 o          1 ME4      -0.658500
     34 H1          -0.3320    -0.1720    -1.0170 h1         1 ME4       0.065700
     35 H21          1.8840    -0.8820    -0.5250 hc         1 ME4       0.027700
     36 H22          1.8840     0.8820    -0.5250 hc         1 ME4       0.027700
     37 H31A         1.9050     0.9410     1.8890 hc         1 ME4       0.014700
     38 H32A         3.2140    -0.1060     1.3290 hc         1 ME4       0.014700
     39 H11         -4.1240    -1.7460     2.3180 ha         1 ME4       0.113000
     40 H15         -8.9590    -1.5680     3.0320 h4         1 ME4       0.151000
     41 H19         -4.6420    -2.0420    -1.8880 ha         1 ME4       0.134000
     42 H24         -0.2880     4.8180    -1.4320 ha         1 ME4       0.119500
     43 H27         -2.9200     4.7850     2.7680 ha         1 ME4       0.128000
     44 H30         -2.6750     8.2450    -0.0850 h4         1 ME4       0.129000
     45 H31         -3.4540    10.3350     0.7950 ha         1 ME4       0.122000
     46 H32         -3.8110    10.6180     3.2630 ha         1 ME4       0.105000
     47 H33         -3.3250     8.8150     4.7840 ha         1 ME4       0.132000
     48 H41          1.9610    -1.0380     3.2660 hc         1 ME4       0.016200
     49 H42          1.9320    -2.0820     1.8420 hc         1 ME4       0.016200
     50 H51         -0.2840    -0.2610     2.8090 hc         1 ME4       0.014200
     51 H52         -0.2770    -2.0290     2.8210 hc         1 ME4       0.014200
     52 H6          -0.2260    -2.0850     0.4020 h1         1 ME4       0.059700
     53 HN7         -2.4470    -0.6660     1.6840 hn         1 ME4       0.180500
     54 HN16        -6.5360    -1.0680     3.6470 hn         1 ME4       0.117700
     55 H18         -7.1020    -1.7350    -1.6410 ha         1 ME4       0.111000
     56 HN20        -0.6920     1.4640     1.3930 hn         1 ME4       0.179500
     57 H25         -1.0810     6.9580    -0.4440 ha         1 ME4       0.128000
     58 H28         -2.1220     2.6490     1.7730 ha         1 ME4       0.119500
     59 C8          -2.7810    -1.8010    -0.0070 c          1 ME4       0.607700
     60 C21         -0.6900     2.3580    -0.4670 c          1 ME4       0.608700
@<TRIPOS>BOND
     1     1     2 1   
     2     1    21 1   
     3     1    27 1   
     4     1    34 1   
     5     2     3 1   
     6     2    35 1   
     7     2    36 1   
     8     3    19 1   
     9     3    37 1   
    10     3    38 1   
    11     4     5 ar  
    12     4    10 ar  
    13     4    59 1   
    14     5     6 ar  
    15     5    39 1   
    16     6     7 ar  
    17     6    24 1   
    18     7     8 1   
    19     7    26 ar  
    20     8     9 2   
    21     8    25 1   
    22     9    24 1   
    23     9    40 1   
    24    10    26 ar  
    25    10    41 1   
    26    11    29 ar  
    27    11    30 ar  
    28    11    42 1   
    29    12    31 ar  
    30    12    32 ar  
    31    12    43 1   
    32    13    14 1   
    33    13    18 1   
    34    13    31 1   
    35    14    15 2   
    36    14    44 1   
    37    15    16 1   
    38    15    45 1   
    39    16    17 2   
    40    16    46 1   
    41    17    18 1   
    42    17    47 1   
    43    18    33 2   
    44    19    20 1   
    45    19    48 1   
    46    19    49 1   
    47    20    21 1   
    48    20    50 1   
    49    20    51 1   
    50    21    22 1   
    51    21    52 1   
    52    22    53 1   
    53    22    59 1   
    54    23    59 2   
    55    24    54 1   
    56    26    55 1   
    57    27    56 1   
    58    27    60 1   
    59    28    60 2   
    60    29    32 ar  
    61    29    60 1   
    62    30    31 ar  
    63    30    57 1   
    64    32    58 1   
@<TRIPOS>SUBSTRUCTURE
     1 ME4         1 TEMP              0 ****  ****    0 ROOT
