@<TRIPOS>MOLECULE
ME5
   50    53     1     0     0
SMALL
bcc


@<TRIPOS>ATOM
      1 C1           0.0000     0.0000     0.0000 c          1 ME5       0.627700
      2 C2           2.2890     0.0000     1.0750 cc         1 ME5      -0.025000
      3 C3           1.4850     0.0000     0.0000 cd         1 ME5      -0.124700
      4 C7          -2.0000     3.7080     1.3880 ca         1 ME5      -0.158600
      5 C8          -2.4590    -0.6430    -2.7230 c3         1 ME5      -0.035400
      6 C10         -2.2980     0.4440    -3.7880 c3         1 ME5      -0.027400
      7 C12         -2.3300     1.7830    -3.0470 c3         1 ME5      -0.036400
      8 C13         -2.6110     1.4380    -1.5850 c3         1 ME5      -0.004300
      9 C14         -0.0270     4.9100     1.9960 ca         1 ME5      -0.114000
     10 C15         -0.6010     6.9680     4.9990 cc         1 ME5      -0.127400
     11 C16         -0.7720     5.6470     2.9170 ca         1 ME5      -0.089400
     12 C19         -2.0480     0.0250    -1.4150 c3         1 ME5       0.001700
     13 C21          0.9830     7.3810     3.1990 c          1 ME5       0.611700
     14 C22         -2.7580     4.4210     2.2930 ca         1 ME5      -0.042500
     15 C24          1.6180     8.3830     4.1100 cc         1 ME5      -0.227200
     16 C44         -0.6480     3.9300     1.2220 ca         1 ME5      -0.042500
     17 N2          -0.1250     6.6670     3.7210 n          1 ME5       0.165800
     18 C18         -2.1370     5.4030     3.0650 ca         1 ME5      -0.114000
     19 C23         -0.0350     7.8910     5.7830 cd         1 ME5      -0.191000
     20 C26          1.1120     8.6140     5.3240 cd         1 ME5      -0.036000
     21 N4          -2.0740     2.4010    -0.6650 ns         1 ME5      -0.198900
     22 N1          -0.6140    -0.0000    -1.2480 ns         1 ME5      -0.210900
     23 O3          -0.6010     0.0210     1.0710 o          1 ME5      -0.604100
     24 C4           3.6540    -0.0020     0.6640 cc         1 ME5      -0.126000
     25 S1           2.2620    -0.0030    -1.4950 ss         1 ME5      -0.188800
     26 C5           3.7820    -0.0040    -0.7070 cd         1 ME5       0.008300
     27 Cl1          5.2290    -0.0080    -1.6270 cl         1 ME5       0.070600
     28 H2           1.9930    -0.5280     1.9730 ha         1 ME5       0.150000
     29 H81         -3.4920    -0.9660    -2.6700 hc         1 ME5       0.028200
     30 H82         -1.8060    -1.4800    -2.9390 hc         1 ME5       0.028200
     31 H101        -1.3500     0.3250    -4.2980 hc         1 ME5       0.018200
     32 H102        -3.1170     0.3930    -4.4960 hc         1 ME5       0.018200
     33 H121        -3.1210     2.4090    -3.4420 hc         1 ME5       0.021200
     34 H122        -1.3710     2.2800    -3.1350 hc         1 ME5       0.021200
     35 H13         -3.6850     1.3940    -1.4480 h1         1 ME5       0.060700
     36 H14          1.0330     5.1000     1.8810 ha         1 ME5       0.127000
     37 H15         -1.4680     6.4340     5.3690 h4         1 ME5       0.129000
     38 H19         -2.5330    -0.4680    -0.5810 h1         1 ME5       0.068700
     39 H22         -3.8180     4.2240     2.4010 ha         1 ME5       0.120000
     40 H24          2.4780     8.9480     3.7710 ha         1 ME5       0.131000
     41 H44         -0.0790     3.3530     0.5040 ha         1 ME5       0.120000
     42 H18         -2.7150     5.9740     3.7810 ha         1 ME5       0.127000
     43 H23         -0.4400     8.0870     6.7680 ha         1 ME5       0.121000
     44 H26          1.5750     9.3520     5.9670 ha         1 ME5       0.104000
     45 HN4         -1.2460     2.9020    -0.9210 hn         1 ME5       0.180500
     46 HN1         -0.0370    -0.0190    -2.0660 hn         1 ME5       0.189500
     47 H4           4.4050     0.4800     1.2780 ha         1 ME5       0.139000
     48 C17         -2.6620     2.6650     0.5620 c          1 ME5       0.615700
     49 O1           1.4480     7.2930     2.0620 o          1 ME5      -0.658500
     50 O2          -3.6780     2.1200     0.9860 o          1 ME5      -0.622100
@<TRIPOS>BOND
     1     1     3 1   
     2     1    22 1   
     3     1    23 2   
     4     2     3 2   
     5     2    24 1   
     6     2    28 1   
     7     3    25 1   
     8     4    14 ar  
     9     4    16 ar  
    10     4    48 1   
    11     5     6 1   
    12     5    12 1   
    13     5    29 1   
    14     5    30 1   
    15     6     7 1   
    16     6    31 1   
    17     6    32 1   
    18     7     8 1   
    19     7    33 1   
    20     7    34 1   
    21     8    12 1   
    22     8    21 1   
    23     8    35 1   
    24     9    11 ar  
    25     9    16 ar  
    26     9    36 1   
    27    10    17 1   
    28    10    19 2   
    29    10    37 1   
    30    11    17 1   
    31    11    18 ar  
    32    12    22 1   
    33    12    38 1   
    34    13    15 1   
    35    13    17 1   
    36    13    49 2   
    37    14    18 ar  
    38    14    39 1   
    39    15    20 2   
    40    15    40 1   
    41    16    41 1   
    42    18    42 1   
    43    19    20 1   
    44    19    43 1   
    45    20    44 1   
    46    21    45 1   
    47    21    48 1   
    48    22    46 1   
    49    24    26 2   
    50    24    47 1   
    51    25    26 1   
    52    26    27 1   
    53    48    50 2   
@<TRIPOS>SUBSTRUCTURE
     1 ME5         1 TEMP              0 ****  ****    0 ROOT
