@<TRIPOS>MOLECULE
molecule
   24    25     1     0     0
SMALL
bcc


@<TRIPOS>ATOM
      1 OAA          0.0000     0.0000     0.0000 o          1 ME7      -0.552250
      2 OAB          3.8180     0.0110    -2.3700 o          1 ME7      -0.552250
      3 OAD          1.6030     1.4500    -5.9380 o          1 ME7      -0.552250
      4 CAE          2.2940     0.0000     0.7080 cc         1 ME7      -0.175700
      5 CAF          3.4350     0.0000     0.0000 cd         1 ME7      -0.175700
      6 CAG         -1.8320     1.4500    -5.9380 cc         1 ME7      -0.175700
      7 CAH         -0.6910     1.4510    -6.6460 cd         1 ME7      -0.175700
      8 CAI          0.9350     0.0030    -2.7530 c3         1 ME7       0.094500
      9 CAJ          0.6670     1.4470    -3.1860 c3         1 ME7       0.094500
     10 CAK          1.1830     0.0010    -0.2700 c          1 ME7       0.667700
     11 CAL          3.0510     0.0080    -1.4290 c          1 ME7       0.667700
     12 CAM         -1.4480     1.4480    -4.5090 c          1 ME7       0.667700
     13 CAN          0.4190     1.4490    -5.6680 c          1 ME7       0.667700
     14 NAO          1.7080     0.0020    -1.5090 n          1 ME7      -0.506900
     15 NAP         -0.1060     1.4480    -4.4300 n          1 ME7      -0.506900
     16 HAE          2.2180    -0.5910     1.6130 ha         1 ME7       0.185000
     17 HAF          4.2820     0.5860     0.3370 ha         1 ME7       0.185000
     18 HAG         -2.6770     2.0400    -6.2710 ha         1 ME7       0.185000
     19 HAH         -0.6150     0.8620    -7.5520 ha         1 ME7       0.185000
     20 HAI          1.4960    -0.5070    -3.5270 h1         1 ME7       0.081700
     21 HAIA        -0.0070    -0.5070    -2.5930 h1         1 ME7       0.081700
     22 HAJ          0.1070     1.9570    -2.4120 h1         1 ME7       0.081700
     23 HAJA         1.6090     1.9570    -3.3450 h1         1 ME7       0.081700
     24 OAC         -2.2160     1.4470    -3.5680 o          1 ME7      -0.552250
@<TRIPOS>BOND
     1     1    10 2
     2     2    11 2
     3    24    12 2
     4    13     3 2
     5    10     4 1
     6     4     5 2
     7     4    16 1
     8    11     5 1
     9     5    17 1
    10     6     7 2
    11     6    12 1
    12     6    18 1
    13     7    13 1
    14     7    19 1
    15     9     8 1
    16     8    14 1
    17     8    20 1
    18     8    21 1
    19    15     9 1
    20     9    22 1
    21     9    23 1
    22    14    10 1
    23    14    11 1
    24    12    15 1
    25    13    15 1
@<TRIPOS>SUBSTRUCTURE
     1 ME7         1 TEMP              0 ****  ****    0 ROOT
