@<TRIPOS>MOLECULE
ME8
   54    56     1     0     0
SMALL
bcc


@<TRIPOS>ATOM
      1 O            0.0000     0.0000     0.0000 o          1 ME8      -0.548000
      2 N1           6.3660    -6.0270    -9.3730 nb         1 ME8      -0.750000
      3 O1           1.8800    -0.0010    -1.1630 os         1 ME8      -0.412500
      4 P1           1.0020    -0.0010    -2.5130 p5         1 ME8       0.908800
      5 C2           6.3700    -4.7530    -9.7200 ca         1 ME8       0.680900
      6 N2           1.0800     0.4750     2.3800 nz         1 ME8       0.080400
      7 N3           5.6900    -3.8390    -9.0620 nb         1 ME8      -0.664000
      8 C4           4.9570    -4.1700    -8.0040 ca         1 ME8       0.270800
      9 C5           4.9190    -5.5140    -7.5930 ca         1 ME8      -0.244200
     10 C6           5.6620    -6.4530    -8.3280 ca         1 ME8       0.588200
     11 N6           5.6630    -7.7900    -7.9720 nv         1 ME8      -0.490500
     12 N7           4.1110    -5.5770    -6.5070 nc         1 ME8      -0.513100
     13 C8           3.6640    -4.3860    -6.2300 cd         1 ME8       0.259700
     14 C9           1.2090     0.0000     0.0000 c          1 ME8       0.759100
     15 N9           4.1570    -3.4840    -7.1250 na         1 ME8       0.214000
     16 CA           1.9620     0.0000     1.3050 c3         1 ME8      -0.173500
     17 CB           2.4330    -1.4210     1.6220 c3         1 ME8      -0.004400
     18 SD           3.8610    -3.0850     3.2570 ss         1 ME8      -0.347200
     19 CE           4.8600    -2.8590     4.7540 c3         1 ME8       0.120000
     20 CG           3.3030    -1.4010     2.8810 c3         1 ME8       0.043700
     21 C1'          3.8830    -2.0450    -7.1450 c3         1 ME8       0.145800
     22 O1S          0.1730     1.3740    -2.6140 o          1 ME8      -0.610000
     23 C2'          2.7170    -1.7250    -8.1130 c3         1 ME8       0.129100
     24 O2'          3.1950    -1.5520    -9.4480 oh         1 ME8      -0.541800
     25 O2S          0.0610    -1.1440    -2.4900 o          1 ME8      -0.610000
     26 C3'          2.1790    -0.3900    -7.5410 c3         1 ME8       0.128100
     27 O3'          2.7120     0.7180    -8.2700 oh         1 ME8      -0.557800
     28 C4'          2.6840    -0.3710    -6.0850 c3         1 ME8       0.138100
     29 O4'          3.3880    -1.6050    -5.8620 os         1 ME8      -0.386600
     30 C5'          1.4970    -0.2680    -5.1250 c3         1 ME8       0.314400
     31 O5'          1.9780    -0.1350    -3.7870 os         1 ME8      -0.502200
     32 HN2          0.5830     1.2860     2.0700 hn         1 ME8       0.223800
     33 HN2A         0.4270    -0.2450     2.6180 hn         1 ME8       0.223800
     34 HN6          6.1700    -8.4540    -8.5230 hn         1 ME8       0.274300
     35 HN6A         5.1560    -8.0930    -7.1640 hn         1 ME8       0.274300
     36 HA           2.8200     0.6560     1.2270 hx         1 ME8       0.096700
     37 HB           3.0110    -1.8030     0.7890 hc         1 ME8       0.073700
     38 HBA          1.5720    -2.0580     1.7880 hc         1 ME8       0.073700
     39 HE           5.3720    -3.7840     4.9900 h1         1 ME8       0.035700
     40 HEA          5.5900    -2.0760     4.5860 h1         1 ME8       0.035700
     41 HEB          4.2160    -2.5810     5.5800 h1         1 ME8       0.035700
     42 HG           2.7250    -1.0170     3.7130 h1         1 ME8       0.022200
     43 HGA          4.1630    -0.7640     2.7150 h1         1 ME8       0.022200
     44 H1'          4.7690    -1.4860    -7.4210 h2         1 ME8       0.066700
     45 H2'          1.9570    -2.4960    -8.0650 h1         1 ME8       0.021700
     46 HO2'         2.5300    -1.8260   -10.0580 ho         1 ME8       0.386000
     47 H3'          1.0960    -0.3800    -7.5640 h1         1 ME8       0.016700
     48 HO3'         2.0090     1.2910    -8.5300 ho         1 ME8       0.388000
     49 H4'          3.3550     0.4660    -5.9400 h1         1 ME8       0.044700
     50 H5'          0.8980     0.5980    -5.3820 h1         1 ME8      -0.004800
     51 H5'A         0.8900    -1.1630    -5.2030 h1         1 ME8      -0.004800
     52 H8           2.9990    -4.1480    -5.4090 h5         1 ME8       0.048800
     53 H23          1.6290     0.7100     3.1830 hn         1 ME8       0.223800
     54 H2           6.9570    -4.4480   -10.5780 h5         1 ME8      -0.007900
@<TRIPOS>BOND
     1     1    14 2   
     2     2     5 ar  
     3     2    10 ar  
     4     3     4 1   
     5     3    14 1   
     6     4    22 1   
     7     4    25 1   
     8     4    31 1   
     9     5     7 ar  
    10     5    54 1   
    11     6    16 1   
    12     6    32 1   
    13     6    33 1   
    14     6    53 1   
    15     7     8 ar  
    16     8     9 ar  
    17     8    15 1   
    18     9    10 ar  
    19     9    12 1   
    20    10    11 1   
    21    11    34 1   
    22    11    35 1   
    23    12    13 2   
    24    13    15 1   
    25    13    52 1   
    26    14    16 1   
    27    15    21 1   
    28    16    17 1   
    29    16    36 1   
    30    17    20 1   
    31    17    37 1   
    32    17    38 1   
    33    18    19 1   
    34    18    20 1   
    35    19    39 1   
    36    19    40 1   
    37    19    41 1   
    38    20    42 1   
    39    20    43 1   
    40    21    23 1   
    41    21    29 1   
    42    21    44 1   
    43    23    24 1   
    44    23    26 1   
    45    23    45 1   
    46    24    46 1   
    47    26    27 1   
    48    26    28 1   
    49    26    47 1   
    50    27    48 1   
    51    28    29 1   
    52    28    30 1   
    53    28    49 1   
    54    30    31 1   
    55    30    50 1   
    56    30    51 1   
@<TRIPOS>SUBSTRUCTURE
     1 ME8         1 TEMP              0 ****  ****    0 ROOT
