@<TRIPOS>MOLECULE
molecule
   54    56     1     0     0
SMALL
bcc


@<TRIPOS>ATOM
      1 O            0.0000     0.0000     0.0000 o          1 ME8      -0.480000
      2 N1           6.3660    -6.0270    -9.3730 nb         1 ME8      -0.840000
      3 O1           1.8800    -0.0010    -1.1630 os         1 ME8      -0.495500
      4 P1           1.0020    -0.0010    -2.5130 p5         1 ME8       1.296800
      5 C2           6.3700    -4.7530    -9.7200 ca         1 ME8       0.733900
      6 N2           1.0800     0.4750     2.3800 nz         1 ME8      -0.801600
      7 N3           5.6900    -3.8390    -9.0620 nb         1 ME8      -0.779000
      8 C4           4.9570    -4.1700    -8.0040 ca         1 ME8       0.477800
      9 C5           4.9190    -5.5140    -7.5930 ca         1 ME8      -0.212200
     10 C6           5.6620    -6.4530    -8.3280 ca         1 ME8       0.783200
     11 N6           5.6630    -7.7900    -7.9720 nv         1 ME8      -0.988500
     12 N7           4.1110    -5.5770    -6.5070 nc         1 ME8      -0.600100
     13 C8           3.6640    -4.3860    -6.2300 cd         1 ME8       0.436700
     14 C9           1.2090     0.0000     0.0000 c          1 ME8       0.679100
     15 N9           4.1570    -3.4840    -7.1250 na         1 ME8      -0.249000
     16 CA           1.9620     0.0000     1.3050 c3         1 ME8       0.033500
     17 CB           2.4330    -1.4210     1.6220 c3         1 ME8      -0.082400
     18 SD           3.8610    -3.0850     3.2570 ss         1 ME8      -0.285200
     19 CE           4.8600    -2.8590     4.7540 c3         1 ME8      -0.006000
     20 CG           3.3030    -1.4010     2.8810 c3         1 ME8      -0.024300
     21 C1'          3.8830    -2.0450    -7.1450 c3         1 ME8       0.257800
     22 O1S          0.1730     1.3740    -2.6140 o          1 ME8      -0.763500
     23 C2'          2.7170    -1.7250    -8.1130 c3         1 ME8       0.094100
     24 O2'          3.1950    -1.5520    -9.4480 oh         1 ME8      -0.559800
     25 O2S          0.0610    -1.1440    -2.4900 o          1 ME8      -0.763500
     26 C3'          2.1790    -0.3900    -7.5410 c3         1 ME8       0.086100
     27 O3'          2.7120     0.7180    -8.2700 oh         1 ME8      -0.575800
     28 C4'          2.6840    -0.3710    -6.0850 c3         1 ME8       0.116100
     29 O4'          3.3880    -1.6050    -5.8620 os         1 ME8      -0.402600
     30 C5'          1.4970    -0.2680    -5.1250 c3         1 ME8       0.229400
     31 O5'          1.9780    -0.1350    -3.7870 os         1 ME8      -0.593200
     32 HN2          0.5830     1.2860     2.0700 hn         1 ME8       0.458467
     33 HN2A         0.4270    -0.2450     2.6180 hn         1 ME8       0.458467
     34 HN6          6.1700    -8.4540    -8.5230 hn         1 ME8       0.447800
     35 HN6A         5.1560    -8.0930    -7.1640 hn         1 ME8       0.447800
     36 HA           2.8200     0.6560     1.2270 hx         1 ME8       0.128700
     37 HB           3.0110    -1.8030     0.7890 hc         1 ME8       0.110200
     38 HBA          1.5720    -2.0580     1.7880 hc         1 ME8       0.110200
     39 HE           5.3720    -3.7840     4.9900 h1         1 ME8       0.067700
     40 HEA          5.5900    -2.0760     4.5860 h1         1 ME8       0.067700
     41 HEB          4.2160    -2.5810     5.5800 h1         1 ME8       0.067700
     42 HG           2.7250    -1.0170     3.7130 h1         1 ME8       0.046200
     43 HGA          4.1630    -0.7640     2.7150 h1         1 ME8       0.046200
     44 H1'          4.7690    -1.4860    -7.4210 h2         1 ME8       0.109700
     45 H2'          1.9570    -2.4960    -8.0650 h1         1 ME8       0.059700
     46 HO2'         2.5300    -1.8260   -10.0580 ho         1 ME8       0.403000
     47 H3'          1.0960    -0.3800    -7.5640 h1         1 ME8       0.052700
     48 HO3'         2.0090     1.2910    -8.5300 ho         1 ME8       0.405000
     49 H4'          3.3550     0.4660    -5.9400 h1         1 ME8       0.084700
     50 H5'          0.8980     0.5980    -5.3820 h1         1 ME8       0.046700
     51 H5'A         0.8900    -1.1630    -5.2030 h1         1 ME8       0.046700
     52 H8           2.9990    -4.1480    -5.4090 h5         1 ME8       0.095800
     53 H23          1.6290     0.7100     3.1830 hn         1 ME8       0.458467
     54 H2           6.9570    -4.4480   -10.5780 h5         1 ME8       0.059100
@<TRIPOS>BOND
     1     2     5 ar
     2     3     4 1
     3     3    14 1
     4     4    31 1
     5     5    54 1
     6     6    16 1
     7     6    32 1
     8     6    33 1
     9     7     5 ar
    10     8     7 ar
    11     9     8 ar
    12     9    10 ar
    13    10     2 ar
    14    11    10 1
    15    11    34 1
    16    11    35 1
    17    12     9 1
    18    13    12 2
    19    13    15 1
    20    14     1 2
    21    15     8 1
    22    15    21 1
    23    16    14 1
    24    16    17 1
    25    16    36 1
    26    17    37 1
    27    17    38 1
    28    19    18 1
    29    19    39 1
    30    19    40 1
    31    19    41 1
    32    20    17 1
    33    20    18 1
    34    20    42 1
    35    20    43 1
    36    21    23 1
    37    21    44 1
    38    22     4 1
    39    23    24 1
    40    23    45 1
    41    24    46 1
    42    25     4 1
    43    26    23 1
    44    26    27 1
    45    26    47 1
    46    27    48 1
    47    28    26 1
    48    28    29 1
    49    28    49 1
    50    29    21 1
    51    30    28 1
    52    30    50 1
    53    30    51 1
    54    31    30 1
    55    13    52 1
    56    53     6 1
@<TRIPOS>SUBSTRUCTURE
     1 ME8         1 TEMP              0 ****  ****    0 ROOT
