@<TRIPOS>MOLECULE
molecule
   30    31     1     0     0
SMALL
bcc


@<TRIPOS>ATOM
      1 OAA          0.0000     0.0000     0.0000 o          1 ME9      -0.561000
      2 OAB          3.8180     0.0130    -2.3700 o          1 ME9      -0.561000
      3 OAD         -3.2960     2.9130    -5.2840 o          1 ME9      -0.561000
      4 CAE          2.2950     0.0000     0.7090 cc         1 ME9      -0.177200
      5 CAF          3.4350     0.0000     0.0000 cd         1 ME9      -0.177200
      6 CAG         -1.7720     2.9290    -8.3630 cd         1 ME9      -0.177200
      7 CAH         -2.9140     2.9220    -7.6550 cc         1 ME9      -0.177200
      8 CAI          0.6640     1.4630    -3.1780 c3         1 ME9      -0.102400
      9 CAJ         -0.1430     1.4690    -4.4780 c3         1 ME9      -0.102400
     10 CAK          0.9360     0.0180    -2.7530 c3         1 ME9       0.117000
     11 CAL         -0.4140     2.9140    -4.9020 c3         1 ME9       0.117000
     12 CAM          1.1840     0.0040    -0.2690 c          1 ME9       0.670700
     13 CAN          3.0520     0.0110    -1.4290 c          1 ME9       0.670700
     14 CAO         -0.6620     2.9250    -7.3850 c          1 ME9       0.670700
     15 CAP         -2.5300     2.9180    -6.2250 c          1 ME9       0.670700
     16 NAQ          1.7090     0.0120    -1.5080 n          1 ME9      -0.506900
     17 NAR         -1.1870     2.9200    -6.1460 n          1 ME9      -0.506900
     18 HAE          2.2180    -0.5920     1.6130 ha         1 ME9       0.183750
     19 HAF          4.2830     0.5840     0.3380 ha         1 ME9       0.183750
     20 HAG         -1.6960     2.3460    -9.2730 ha         1 ME9       0.183750
     21 HAH         -3.7610     3.5100    -7.9870 ha         1 ME9       0.183750
     22 HAI          1.6050     1.9770    -3.3340 hc         1 ME9       0.057200
     23 HAIA         0.1020     1.9670    -2.4010 hc         1 ME9       0.057200
     24 HAJ         -1.0830     0.9550    -4.3220 hc         1 ME9       0.057200
     25 HAJA         0.4200     0.9650    -5.2540 hc         1 ME9       0.057200
     26 HAK          1.4980    -0.4870    -3.5290 h1         1 ME9       0.072700
     27 HAKA        -0.0040    -0.4950    -2.5960 h1         1 ME9       0.072700
     28 HAL          0.5270     3.4280    -5.0580 h1         1 ME9       0.072700
     29 HALA        -0.9760     3.4190    -4.1250 h1         1 ME9       0.072700
     30 OAC          0.5220     2.9240    -7.6550 o          1 ME9      -0.561000
@<TRIPOS>BOND
     1     1    12 2
     2     2    13 2
     3    14    30 2
     4     3    15 2
     5    12     4 1
     6     5     4 2
     7     4    18 1
     8    13     5 1
     9     5    19 1
    10     7     6 2
    11    14     6 1
    12     6    20 1
    13    15     7 1
    14     7    21 1
    15     9     8 1
    16     8    10 1
    17     8    22 1
    18     8    23 1
    19     9    11 1
    20     9    24 1
    21     9    25 1
    22    10    16 1
    23    10    26 1
    24    10    27 1
    25    11    17 1
    26    11    28 1
    27    11    29 1
    28    16    12 1
    29    16    13 1
    30    17    14 1
    31    15    17 1
@<TRIPOS>SUBSTRUCTURE
     1 ME9         1 TEMP              0 ****  ****    0 ROOT
