@<TRIPOS>MOLECULE
molecule
   12    11     1     0     0
SMALL
bcc


@<TRIPOS>ATOM
      1 C1           0.0000     0.0000     0.0000 c2         1 MEB      -0.127400
      2 C2           1.3110     0.0000     0.0000 c2         1 MEB      -0.233000
      3 C3          -0.7530     0.0000     1.3050 c3         1 MEB      -0.053900
      4 C1'         -0.7530     0.0070    -1.3050 c3         1 MEB      -0.053900
      5 H2           1.8530     0.0030    -0.9380 ha         1 MEB       0.112000
      6 H21          1.8530     0.0000     0.9380 ha         1 MEB       0.112000
      7 H3          -0.8030    -1.0100     1.6930 hc         1 MEB       0.040700
      8 H31         -1.7560     0.3750     1.1430 hc         1 MEB       0.040700
      9 H32         -0.2410     0.6350     2.0180 hc         1 MEB       0.040700
     10 H1'1        -0.8270     1.0230    -1.6740 hc         1 MEB       0.040700
     11 H1'2        -0.2260    -0.6030    -2.0290 hc         1 MEB       0.040700
     12 H1'3        -1.7470    -0.3940    -1.1500 hc         1 MEB       0.040700
@<TRIPOS>BOND
     1     1     2 2
     2     1     3 1
     3     1     4 1
     4     2     5 1
     5     2     6 1
     6     3     7 1
     7     3     8 1
     8     3     9 1
     9     4    10 1
    10     4    11 1
    11     4    12 1
@<TRIPOS>SUBSTRUCTURE
     1 MEB         1 TEMP              0 ****  ****    0 ROOT
