@<TRIPOS>MOLECULE
MEB
   12    11     1     0     0
SMALL
bcc


@<TRIPOS>ATOM
      1 C1          0.0330    0.0050    0.0000 c2        1 MEB     -0.115400
      2 C2          1.3690    0.0210    0.0020 c2        1 MEB     -0.228000
      3 C3         -0.7620   -0.1290    1.2450 c3        1 MEB     -0.061900
      4 C1'        -0.7620    0.1200   -1.2470 c3        1 MEB     -0.061900
      5 H2          1.9570   -0.0640    0.9240 ha        1 MEB      0.111000
      6 H21         1.9570    0.1200   -0.9190 ha        1 MEB      0.111000
      7 H3         -1.4270    0.7610    1.3740 hc        1 MEB      0.040700
      8 H31        -1.4080   -1.0410    1.1920 hc        1 MEB      0.040700
      9 H32        -0.1060   -0.2130    2.1460 hc        1 MEB      0.040700
     10 H1'1       -1.4050   -0.7860   -1.3770 hc        1 MEB      0.040700
     11 H1'2       -1.4290    1.0160   -1.1950 hc        1 MEB      0.040700
     12 H1'3       -0.1060    0.2200   -2.1450 hc        1 MEB      0.040700
@<TRIPOS>BOND
     1    1    2 2   
     2    1    3 1   
     3    1    4 1   
     4    2    5 1   
     5    2    6 1   
     6    3    7 1   
     7    3    8 1   
     8    3    9 1   
     9    4   10 1   
    10    4   11 1   
    11    4   12 1   
@<TRIPOS>SUBSTRUCTURE
     1 MEB         1 TEMP              0 ****  ****    0 ROOT
