@<TRIPOS>MOLECULE
MEC
   16    15     1     0     0
SMALL
bcc


@<TRIPOS>ATOM
      1 C2           0.0000     0.0000     0.0000 c3         1 MEC       0.296700
      2 O1           1.4520     0.0000     0.0000 os         1 MEC      -0.439900
      3 C3           2.1260     0.0000     1.1650 c          1 MEC       0.682100
      4 O2           1.5180     0.0000     2.2170 o          1 MEC      -0.661000
      5 N1           3.4730    -0.0000     1.1660 ns         1 MEC      -0.178900
      6 C4           4.2050     0.0000     2.4340 c3         1 MEC       0.064000
      7 C5           5.7090    -0.0000     2.1550 c3         1 MEC      -0.008100
      8 H23         -0.3610    -0.8850     0.5110 h1         1 MEC      -0.002300
      9 H22         -0.3610     0.8850     0.5110 h1         1 MEC      -0.002300
     10 H21         -0.3610     0.0000    -1.0210 h1         1 MEC      -0.002300
     11 H1           3.9730    -0.0000     0.2990 hn         1 MEC       0.175500
     12 H42          3.9430    -0.8840     3.0020 h1         1 MEC       0.024700
     13 H41          3.9430     0.8840     3.0020 h1         1 MEC       0.024700
     14 H53          6.2500    -0.0000     3.0940 hc         1 MEC       0.008700
     15 H52          5.9710    -0.8850     1.5870 hc         1 MEC       0.008700
     16 H51          5.9720     0.8850     1.5870 hc         1 MEC       0.008700
@<TRIPOS>BOND
     1     1     2 1   
     2     1     8 1   
     3     1     9 1   
     4     1    10 1   
     5     2     3 1   
     6     3     4 2   
     7     3     5 1   
     8     5     6 1   
     9     5    11 1   
    10     6     7 1   
    11     6    12 1   
    12     6    13 1   
    13     7    14 1   
    14     7    15 1   
    15     7    16 1   
@<TRIPOS>SUBSTRUCTURE
     1 MEC         1 TEMP              0 ****  ****    0 ROOT
