@<TRIPOS>MOLECULE
molecule
    6     5     1     0     0
SMALL
bcc


@<TRIPOS>ATOM
      1 C            0.0000     0.0000     0.0000 c3         1 MEE       0.025000
      2 S            1.8040     0.0000     0.0000 sh         1 MEE      -0.422900
      3 H1          -0.3610     0.0000     1.0210 h1         1 MEE       0.060700
      4 H2          -0.3610    -0.8850    -0.5110 h1         1 MEE       0.060700
      5 H3          -0.3610     0.8850    -0.5110 h1         1 MEE       0.060700
      6 HS           2.2470    -1.0840     0.6260 hs         1 MEE       0.215800
@<TRIPOS>BOND
     1     1     2 1
     2     1     3 1
     3     1     4 1
     4     1     5 1
     5     2     6 1
@<TRIPOS>SUBSTRUCTURE
     1 MEE         1 TEMP              0 ****  ****    0 ROOT
