@<TRIPOS>MOLECULE
molecule
   55    58     1     0     0
SMALL
bcc


@<TRIPOS>ATOM
      1 OE2          0.0000     0.0000     0.0000 o          1 MEF      -0.829300
      2 CD           1.2080     0.0000     0.0000 c          1 MEF       0.888600
      3 OE1          1.8800     0.0000     1.1630 o          1 MEF      -0.829300
      4 CG           1.9610    -0.0050    -1.3050 c3         1 MEF      -0.179400
      5 CB           0.9660    -0.0120    -2.4680 c3         1 MEF      -0.063400
      6 CA           1.7290    -0.0180    -3.7930 c3         1 MEF       0.005700
      7 CT           0.7550    -0.1470    -4.9350 c          1 MEF       0.890600
      8 O1          -0.0440    -1.2220    -5.0160 o          1 MEF      -0.822300
      9 O2           0.6920     0.7180    -5.7770 o          1 MEF      -0.822300
     10 N            2.4800     1.2330    -3.9300 ns         1 MEF      -0.514900
     11 C            3.5800     1.2780    -4.7060 c          1 MEF       0.654700
     12 O            3.9530     0.2800    -5.2930 o          1 MEF      -0.622100
     13 N10          6.4630     6.0930    -5.2350 nh         1 MEF      -0.562000
     14 CM           5.6100     7.1660    -5.8100 c3         1 MEF       0.442000
     15 N5           6.5070     8.0770    -6.5160 nh         1 MEF      -0.650400
     16 C9           7.5620     5.9510    -6.2370 c3         1 MEF       0.126800
     17 C6           7.8270     7.4120    -6.6420 c3         1 MEF       0.193500
     18 C7           8.2180     7.5200    -8.1190 c3         1 MEF       0.227800
     19 N8           8.1660     8.9390    -8.5060 nu         1 MEF      -0.802000
     20 C8A          7.1120     9.7480    -8.1150 cc         1 MEF       0.307600
     21 C4A          6.2570     9.3320    -7.0940 cd         1 MEF       0.049800
     22 N1           6.8970    10.9300    -8.7010 nc         1 MEF      -0.598300
     23 C2           5.9030    11.7050    -8.3230 cd         1 MEF       0.291800
     24 NA2          5.7220    12.9100    -8.9530 nz         1 MEF      -0.688600
     25 N3           5.0500    11.3450    -7.3270 ns         1 MEF      -0.449400
     26 C4           5.2070    10.1580    -6.6980 c          1 MEF       0.701700
     27 O4           4.4460     9.8180    -5.8040 o          1 MEF      -0.602500
     28 C11          4.3350     2.5380    -4.8450 ca         1 MEF      -0.171600
     29 C12          5.4770     2.5860    -5.6490 ca         1 MEF      -0.096000
     30 C13          4.6120     4.8630    -4.3080 ca         1 MEF      -0.139000
     31 C16          3.9060     3.6890    -4.1770 ca         1 MEF      -0.096000
     32 C15          6.1790     3.7620    -5.7770 ca         1 MEF      -0.139000
     33 C14          5.7520     4.9060    -5.1060 ca         1 MEF      -0.037400
     34 HG           2.5850    -0.8900    -1.3590 hc         1 MEF       0.027700
     35 HGA          2.5830     0.8790    -1.3670 hc         1 MEF       0.027700
     36 HB           0.3440    -0.8960    -2.4060 hc         1 MEF       0.068200
     37 HBA          0.3430     0.8730    -2.4150 hc         1 MEF       0.068200
     38 HA           2.4170    -0.8550    -3.8100 h1         1 MEF       0.077700
     39 HN           2.1720     2.0560    -3.4510 hn         1 MEF       0.308500
     40 HM           4.8960     6.7390    -6.5030 h2         1 MEF       0.080700
     41 HMA          5.0960     7.6940    -5.0160 h2         1 MEF       0.080700
     42 H9           7.2310     5.3710    -7.0890 h1         1 MEF       0.079200
     43 H9A          8.4420     5.5140    -5.7810 h1         1 MEF       0.079200
     44 H6           8.5660     7.8750    -5.9990 h1         1 MEF       0.087700
     45 H7           7.5210     6.9520    -8.7230 h1         1 MEF       0.066200
     46 H7A          9.2240     7.1420    -8.2580 h1         1 MEF       0.066200
     47 HN8          8.9040     9.3260    -9.0590 hn         1 MEF       0.447800
     48 HNA2         4.8180    12.9310    -9.3810 hn         1 MEF       0.448133
     49 HNAA         6.4260    13.0300    -9.6540 hn         1 MEF       0.448133
     50 HN3          4.3030    11.9570    -7.0620 hn         1 MEF       0.331500
     51 H12          5.3510     1.5380    -5.8940 ha         1 MEF       0.206500
     52 H13          4.7370     5.9110    -4.0670 ha         1 MEF       0.138500
     53 H16          3.0720     3.1380    -3.7580 ha         1 MEF       0.206500
     54 H15          7.0100     4.3150    -6.1980 ha         1 MEF       0.138500
     55 HA23         5.7110    13.6440    -8.2720 hn         1 MEF       0.448133
@<TRIPOS>BOND
     1     1     2 1
     2     4     2 1
     3     2     3 1
     4     5     4 1
     5     4    34 1
     6     4    35 1
     7     6     5 1
     8     5    36 1
     9     5    37 1
    10     6    10 1
    11     6     7 1
    12     6    38 1
    13     9     7 1
    14     7     8 1
    15    11    10 1
    16    10    39 1
    17    12    11 2
    18    11    28 1
    19    14    13 1
    20    16    13 1
    21    33    13 1
    22    15    14 1
    23    14    40 1
    24    14    41 1
    25    21    15 1
    26    15    17 1
    27    17    16 1
    28    16    42 1
    29    16    43 1
    30    18    17 1
    31    17    44 1
    32    19    18 1
    33    18    45 1
    34    18    46 1
    35    20    19 1
    36    19    47 1
    37    22    20 1
    38    20    21 2
    39    26    21 1
    40    23    22 2
    41    24    23 1
    42    23    25 1
    43    24    48 1
    44    24    49 1
    45    25    26 1
    46    25    50 1
    47    26    27 2
    48    31    28 ar
    49    28    29 ar
    50    29    30 ar
    51    29    51 1
    52    33    30 ar
    53    30    52 1
    54    31    32 ar
    55    31    53 1
    56    32    33 ar
    57    32    54 1
    58    55    24 1
@<TRIPOS>SUBSTRUCTURE
     1 MEF         1 TEMP              0 ****  ****    0 ROOT
