@<TRIPOS>MOLECULE
MEF
   56    59     1     0     0
SMALL
bcc


@<TRIPOS>ATOM
      1 OE2         0.9590    2.2670   -1.5380 oh        1 MEF     -0.590100
      2 CD          0.1920    1.4750   -2.3470 c         1 MEF      0.629100
      3 OE1        -0.7680    0.9640   -1.7690 o         1 MEF     -0.502000
      4 CG          0.5800    1.3000   -3.7840 c3        1 MEF     -0.179400
      5 CB          0.6050    2.6180   -4.5330 c3        1 MEF     -0.075400
      6 CA          1.9450    2.8620   -5.2360 c3        1 MEF      0.001700
      7 CT          1.7710    4.0430   -6.2110 c         1 MEF      0.891600
      8 O1          1.7960    3.8500   -7.4630 o         1 MEF     -0.862300
      9 O2          1.6540    5.2360   -5.7640 o         1 MEF     -0.862300
     10 N           3.0290    3.1330   -4.3040 n         1 MEF     -0.541900
     11 C           4.2760    2.5300   -4.5230 c         1 MEF      0.657700
     12 O           4.3680    1.3470   -4.8920 o         1 MEF     -0.567100
     13 N10         8.2640    6.5780   -4.3900 nh        1 MEF     -0.583000
     14 CM          7.4180    7.8050   -4.4190 c3        1 MEF      0.362000
     15 N5          7.1720    8.2030   -5.8340 nh        1 MEF     -0.565400
     16 C9          9.1320    6.7590   -5.5610 c3        1 MEF      0.131800
     17 C6          8.3850    7.7320   -6.5490 c3        1 MEF      0.099500
     18 C7          8.1600    7.0470   -7.9080 c3        1 MEF      0.162800
     19 N8          6.9560    7.4040   -8.6160 nh        1 MEF     -0.684000
     20 C8A         5.8160    7.4880   -7.7650 cc        1 MEF      0.263600
     21 C4A         5.9390    7.8250   -6.4070 cd        1 MEF     -0.040200
     22 N1          4.5960    7.1200   -8.3470 nc        1 MEF     -0.575300
     23 C2          3.5540    6.9840   -7.5310 cd        1 MEF      0.545800
     24 NA2         2.3150    6.3880   -8.0960 n4        1 MEF     -0.829600
     25 N3          3.5310    7.3580   -6.1880 n         1 MEF     -0.459400
     26 C4          4.7010    7.8710   -5.5880 c         1 MEF      0.704700
     27 O4          4.5850    8.3330   -4.4430 o         1 MEF     -0.591500
     28 C11         5.4710    3.3970   -4.3120 ca        1 MEF     -0.166600
     29 C12         6.4570    3.4000   -5.3020 ca        1 MEF     -0.077000
     30 C13         6.5630    5.2650   -3.2380 ca        1 MEF     -0.163000
     31 C16         5.5780    4.2850   -3.2370 ca        1 MEF     -0.077000
     32 C15         7.4340    4.3920   -5.3210 ca        1 MEF     -0.163000
     33 C14         7.4460    5.4030   -4.3390 ca        1 MEF      0.099600
     34 HG          1.5880    0.8010   -3.8140 hc        1 MEF      0.087700
     35 HGA        -0.1540    0.5980   -4.2630 hc        1 MEF      0.087700
     36 HB          0.3760    3.4770   -3.8480 hc        1 MEF      0.066200
     37 HBA        -0.1890    2.6110   -5.3270 hc        1 MEF      0.066200
     38 HA          2.2070    1.9420   -5.8430 h1        1 MEF      0.101700
     39 HN          1.7000    2.6260   -2.0460 ho        1 MEF      0.434000
     40 HM          6.4790    7.6830   -3.8140 h2        1 MEF      0.104700
     41 HMA         8.0360    8.6400   -3.9740 h2        1 MEF      0.104700
     42 H9          9.4320    5.8040   -6.0560 h1        1 MEF      0.075200
     43 H9A        10.0650    7.2640   -5.1870 h1        1 MEF      0.075200
     44 H6          9.0130    8.6560   -6.6990 h1        1 MEF      0.086700
     45 H7          8.1150    5.9290   -7.7540 h1        1 MEF      0.071700
     46 H7A         9.0440    7.2700   -8.5690 h1        1 MEF      0.071700
     47 HN8         7.0430    8.2110   -9.2020 hn        1 MEF      0.407800
     48 HNA2        2.5180    5.4040   -8.4090 hn        1 MEF      0.493800
     49 HNAA        1.9690    6.9530   -8.8670 hn        1 MEF      0.493800
     50 HN3         2.7580    7.1030   -5.5910 hn        1 MEF      0.391500
     51 H12         6.4340    2.6300   -6.0900 ha        1 MEF      0.153500
     52 H13         6.6300    5.9590   -2.3850 ha        1 MEF      0.144000
     53 H16         4.8750    4.2240   -2.3920 ha        1 MEF      0.153500
     54 H15         8.1690    4.3700   -6.1380 ha        1 MEF      0.144000
     55 H2          3.0610    4.0940   -4.0260 hn        1 MEF      0.298500
     56 HA23        1.5870    6.2570   -7.3340 hn        1 MEF      0.493800
@<TRIPOS>BOND
     1    1    2 1   
     2    1   39 1   
     3    2    3 2   
     4    2    4 1   
     5    4    5 1   
     6    4   34 1   
     7    4   35 1   
     8    5    6 1   
     9    5   36 1   
    10    5   37 1   
    11    6    7 1   
    12    6   10 1   
    13    6   38 1   
    14    7    8 1   
    15    7    9 1   
    16   10   11 1   
    17   10   55 1   
    18   11   12 2   
    19   11   28 1   
    20   13   14 1   
    21   13   16 1   
    22   13   33 1   
    23   14   15 1   
    24   14   40 1   
    25   14   41 1   
    26   15   17 1   
    27   15   21 1   
    28   16   17 1   
    29   16   42 1   
    30   16   43 1   
    31   17   18 1   
    32   17   44 1   
    33   18   19 1   
    34   18   45 1   
    35   18   46 1   
    36   19   20 1   
    37   19   47 1   
    38   20   21 2   
    39   20   22 1   
    40   21   26 1   
    41   22   23 2   
    42   23   24 1   
    43   23   25 1   
    44   24   48 1   
    45   24   49 1   
    46   24   56 1   
    47   25   26 1   
    48   25   50 1   
    49   26   27 2   
    50   28   29 ar  
    51   28   31 ar  
    52   29   32 ar  
    53   29   51 1   
    54   30   31 ar  
    55   30   33 ar  
    56   30   52 1   
    57   31   53 1   
    58   32   33 ar  
    59   32   54 1   
@<TRIPOS>SUBSTRUCTURE
     1 MEF         1 TEMP              0 ****  ****    0 ROOT
