@<TRIPOS>MOLECULE
MEI
   46    45     1     0     0
SMALL
bcc


@<TRIPOS>ATOM
      1 C1          0.3720   -0.6270    0.4630 c3        1 MEI      0.119700
      2 O1          1.7490   -0.3160    0.5050 os        1 MEI     -0.418600
      3 C2          2.2300    0.1780    1.7680 c3        1 MEI      0.148800
      4 C3          1.3700    1.3200    2.2890 c3        1 MEI     -0.118100
      5 C4          2.2660   -0.9580    2.7870 c3        1 MEI     -0.118100
      6 C5          3.6660    0.6410    1.4850 c3        1 MEI     -0.066400
      7 C6          3.7390    1.8320    0.5550 c3        1 MEI     -0.078400
      8 C7          5.1780    2.1830    0.2400 c3        1 MEI     -0.077400
      9 C8          5.2910    3.4180   -0.6420 c3        1 MEI     -0.064700
     10 C9          4.9850    3.0820   -2.0880 c3        1 MEI     -0.088100
     11 C10         6.6880    4.0260   -0.5360 c3        1 MEI     -0.027200
     12 C11         6.9230    4.6960    0.7620 c2        1 MEI     -0.248200
     13 C12         8.0090    5.3830    1.1410 ce        1 MEI     -0.072000
     14 C13         9.2420    5.6440    0.4170 ce        1 MEI     -0.150200
     15 C14         9.6440    4.7130   -0.6710 c3        1 MEI     -0.041900
     16 C15        10.0280    6.6890    0.7370 cf        1 MEI     -0.154200
     17 C16         9.7760    7.7360    1.7980 c         1 MEI      0.893800
     18 O2          9.3480    7.3870    2.9360 o         1 MEI     -0.836300
     19 O3         10.0470    8.9330    1.4880 o         1 MEI     -0.836300
     20 H11A        0.0920   -1.3570    1.2610 h1        1 MEI      0.026367
     21 H12A       -0.2500    0.2970    0.5600 h1        1 MEI      0.026367
     22 H13         0.2250   -1.0840   -0.5490 h1        1 MEI      0.026367
     23 H31         1.1470    2.0400    1.4650 hc        1 MEI      0.041033
     24 H32         1.9130    1.8580    3.1010 hc        1 MEI      0.041033
     25 H33         0.4060    0.9330    2.6970 hc        1 MEI      0.041033
     26 H41         2.8100   -1.8330    2.3600 hc        1 MEI      0.041033
     27 H42         2.7910   -0.6180    3.7110 hc        1 MEI      0.041033
     28 H43         1.2340   -1.2780    3.0630 hc        1 MEI      0.041033
     29 H51         4.1480    0.8940    2.4650 hc        1 MEI      0.048200
     30 H52         4.2280   -0.2180    1.0340 hc        1 MEI      0.048200
     31 H61         3.1800    1.5980   -0.3890 hc        1 MEI      0.043700
     32 H62         3.2370    2.7160    1.0320 hc        1 MEI      0.043700
     33 H71         5.6760    1.3150   -0.2660 hc        1 MEI      0.043200
     34 H72         5.7300    2.3700    1.2000 hc        1 MEI      0.043200
     35 H8          4.5440    4.1830   -0.2890 hc        1 MEI      0.047700
     36 H91         5.7440    2.3700   -2.4940 hc        1 MEI      0.026367
     37 H92         3.9760    2.6110   -2.1760 hc        1 MEI      0.026367
     38 H93         5.0000    4.0080   -2.7120 hc        1 MEI      0.026367
     39 H101        7.4470    3.2140   -0.6990 hc        1 MEI      0.038200
     40 H102        6.8180    4.7710   -1.3690 hc        1 MEI      0.038200
     41 H11         6.0830    4.6240    1.4750 ha        1 MEI      0.101000
     42 H12         8.0040    5.8630    2.1480 ha        1 MEI      0.177000
     43 H141        8.9950    4.8530   -1.5710 hc        1 MEI      0.018700
     44 H142        9.5530    3.6510   -0.3320 hc        1 MEI      0.018700
     45 H143       10.7040    4.8900   -0.9800 hc        1 MEI      0.018700
     46 H15        10.9590    6.8660    0.1720 ha        1 MEI      0.098000
@<TRIPOS>BOND
     1    1    2 1   
     2    1   20 1   
     3    1   21 1   
     4    1   22 1   
     5    2    3 1   
     6    3    4 1   
     7    3    5 1   
     8    3    6 1   
     9    4   23 1   
    10    4   24 1   
    11    4   25 1   
    12    5   26 1   
    13    5   27 1   
    14    5   28 1   
    15    6    7 1   
    16    6   29 1   
    17    6   30 1   
    18    7    8 1   
    19    7   31 1   
    20    7   32 1   
    21    8    9 1   
    22    8   33 1   
    23    8   34 1   
    24    9   10 1   
    25    9   11 1   
    26    9   35 1   
    27   10   36 1   
    28   10   37 1   
    29   10   38 1   
    30   11   12 1   
    31   11   39 1   
    32   11   40 1   
    33   12   13 2   
    34   12   41 1   
    35   13   14 1   
    36   13   42 1   
    37   14   15 1   
    38   14   16 2   
    39   15   43 1   
    40   15   44 1   
    41   15   45 1   
    42   16   17 1   
    43   16   46 1   
    44   17   18 1   
    45   17   19 1   
@<TRIPOS>SUBSTRUCTURE
     1 MEI         1 TEMP              0 ****  ****    0 ROOT
