@<TRIPOS>MOLECULE
molecule
   46    45     1     0     0
SMALL
bcc


@<TRIPOS>ATOM
      1 C1           0.0000     0.0000     0.0000 c3         1 MEI       0.108700
      2 O1           1.4290     0.0000     0.0000 os         1 MEI      -0.398600
      3 C2           1.8420     0.0000     1.3680 c3         1 MEI       0.132800
      4 C3           1.2590     1.2240     2.0770 c3         1 MEI      -0.118100
      5 C4           1.3400    -1.2740     2.0520 c3         1 MEI      -0.118100
      6 C5           3.3690     0.0490     1.4400 c3         1 MEI      -0.066400
      7 C6           3.8650     1.3780     0.8680 c3         1 MEI      -0.084400
      8 C7           5.3930     1.4280     0.9400 c3         1 MEI      -0.079400
      9 C8           5.8870     2.7570     0.3680 c3         1 MEI      -0.069700
     10 C9           5.5490     2.8290    -1.1220 c3         1 MEI      -0.089100
     11 C10          7.4020     2.8600     0.5530 c3         1 MEI      -0.033200
     12 C11          7.8740     4.2190     0.1020 c2         1 MEI      -0.238200
     13 C12          8.5750     4.9910     0.9340 ce         1 MEI      -0.088000
     14 C13          9.0320     6.3100     0.4960 ce         1 MEI      -0.138200
     15 C14          8.7100     6.7970    -0.8930 c3         1 MEI      -0.022900
     16 C15          9.7440     7.0940     1.3390 cf         1 MEI      -0.150200
     17 C16          9.9140     8.4720     1.0540 c          1 MEI       0.862800
     18 O2          10.7340     9.2240     1.8170 o          1 MEI      -0.845800
     19 O3           9.3190     8.9770     0.1190 o          1 MEI      -0.845800
     20 H11A        -0.3610    -0.3010    -0.9760 h1         1 MEI       0.029367
     21 H12A        -0.3610     0.9960     0.2280 h1         1 MEI       0.029367
     22 H13         -0.3610    -0.6950     0.7480 h1         1 MEI       0.029367
     23 H31          0.2300     1.0260     2.3510 hc         1 MEI       0.041367
     24 H32          1.2990     2.0790     1.4130 hc         1 MEI       0.041367
     25 H33          1.8360     1.4330     2.9700 hc         1 MEI       0.041367
     26 H41          2.0350    -1.5630     2.8310 hc         1 MEI       0.041367
     27 H42          0.3650    -1.0900     2.4870 hc         1 MEI       0.041367
     28 H43          1.2650    -2.0700     1.3210 hc         1 MEI       0.041367
     29 H51          3.7840    -0.7690     0.8640 hc         1 MEI       0.047700
     30 H52          3.6850    -0.0400     2.4720 hc         1 MEI       0.047700
     31 H61          3.4500     2.1960     1.4440 hc         1 MEI       0.050700
     32 H62          3.5490     1.4670    -0.1650 hc         1 MEI       0.050700
     33 H71          5.7090     1.3390     1.9720 hc         1 MEI       0.036200
     34 H72          5.8080     0.6100     0.3630 hc         1 MEI       0.036200
     35 H8           5.4040     3.5760     0.8880 hc         1 MEI       0.056700
     36 H91          4.8380     3.6280    -1.2940 hc         1 MEI       0.033367
     37 H92          5.1180     1.8870    -1.4410 hc         1 MEI       0.033367
     38 H93          6.4530     3.0220    -1.6880 hc         1 MEI       0.033367
     39 H101         7.8900     2.0940    -0.0380 hc         1 MEI       0.034200
     40 H102         7.6490     2.7210     1.5980 hc         1 MEI       0.034200
     41 H11          7.6420     4.5680    -0.8970 ha         1 MEI       0.134000
     42 H12          8.8050     4.6410     1.9330 ha         1 MEI       0.109000
     43 H141         7.7860     7.3630    -0.8730 hc         1 MEI       0.036033
     44 H142         8.5990     5.9480    -1.5570 hc         1 MEI       0.036033
     45 H143         9.5130     7.4310    -1.2490 hc         1 MEI       0.036033
     46 H15          9.9730     6.7320     2.3340 ha         1 MEI       0.101000
@<TRIPOS>BOND
     1     1     2 1
     2     1    20 1
     3     1    21 1
     4     1    22 1
     5     2     3 1
     6     3     4 1
     7     3     5 1
     8     3     6 1
     9     4    23 1
    10     4    24 1
    11     4    25 1
    12     5    26 1
    13     5    27 1
    14     5    28 1
    15     6     7 1
    16     6    29 1
    17     6    30 1
    18     7     8 1
    19     7    31 1
    20     7    32 1
    21     8     9 1
    22     8    33 1
    23     8    34 1
    24     9    10 1
    25     9    11 1
    26     9    35 1
    27    10    36 1
    28    10    37 1
    29    10    38 1
    30    11    12 1
    31    11    39 1
    32    11    40 1
    33    12    13 2
    34    12    41 1
    35    13    14 1
    36    13    42 1
    37    14    15 1
    38    14    16 2
    39    15    43 1
    40    15    44 1
    41    15    45 1
    42    16    17 1
    43    16    46 1
    44    17    18 1
    45    17    19 1
@<TRIPOS>SUBSTRUCTURE
     1 MEI         1 TEMP              0 ****  ****    0 ROOT
