@<TRIPOS>MOLECULE
molecule
   43    45     1     0     0
SMALL
bcc


@<TRIPOS>ATOM
      1 CAI          0.0000     0.0000     0.0000 ca         1 MEJ      -0.122000
      2 CAE          1.3810     0.0000     0.0000 ca         1 MEJ      -0.123500
      3 CAD          2.0740     0.0000     1.1970 ca         1 MEJ      -0.126000
      4 CAF          1.3820     0.0000     2.3940 ca         1 MEJ      -0.123500
      5 CAJ          0.0010     0.0000     2.3940 ca         1 MEJ      -0.122000
      6 CAS         -0.6910     0.0060     1.1980 ca         1 MEJ      -0.098300
      7 CAX         -2.1990     0.0060     1.1980 c3         1 MEJ       0.161000
      8 CAA         -2.7090    -1.4130     0.9400 c3         1 MEJ      -0.104100
      9 NAP         -2.6870     0.8990     0.1440 ns         1 MEJ      -0.581900
     10 CAR         -3.9090     1.4580     0.2480 c          1 MEJ       0.654100
     11 OAB         -4.6040     1.2220     1.2130 o          1 MEJ      -0.620100
     12 CAM         -4.4110     2.3770    -0.8360 c3         1 MEJ      -0.141400
     13 CAN         -5.8140     2.8720    -0.4760 c3         1 MEJ      -0.102700
     14 CAT         -6.3160     3.7900    -1.5600 cc         1 MEJ       0.498900
     15 NAO         -5.5450     4.0200    -2.5790 nd         1 MEJ      -0.663100
     16 CAV         -5.9290     4.8350    -3.5930 ca         1 MEJ       0.198400
     17 CAK         -5.1010     5.0840    -4.6880 ca         1 MEJ      -0.125000
     18 CAG         -5.5320     5.9180    -5.6940 ca         1 MEJ      -0.091000
     19 CAH         -6.7830     6.5180    -5.6340 ca         1 MEJ      -0.156000
     20 CAL         -7.6190     6.2890    -4.5620 ca         1 MEJ      -0.050000
     21 CAW         -7.2020     5.4470    -3.5340 ca         1 MEJ      -0.208600
     22 CAU         -8.0500     5.1660    -2.3660 c          1 MEJ       0.708100
     23 OAC         -9.1560     5.6620    -2.2540 o          1 MEJ      -0.620500
     24 NAQ         -7.5540     4.3300    -1.4240 ns         1 MEJ      -0.470400
     25 H1          -0.5420     0.0020    -0.9380 ha         1 MEJ       0.130500
     26 H2           1.9230    -0.0020    -0.9380 ha         1 MEJ       0.132000
     27 H3           3.1570    -0.0000     1.1960 ha         1 MEJ       0.132000
     28 H4           1.9240    -0.0020     3.3320 ha         1 MEJ       0.132000
     29 H5          -0.5410     0.0020     3.3320 ha         1 MEJ       0.130500
     30 H6          -2.5600     0.3510     2.1590 h1         1 MEJ       0.084700
     31 H7          -3.2130    -1.4470    -0.0180 hc         1 MEJ       0.045700
     32 H8          -1.8730    -2.1020     0.9330 hc         1 MEJ       0.045700
     33 H9          -3.4030    -1.6950     1.7230 hc         1 MEJ       0.045700
     34 H10         -2.1000     1.1200    -0.6360 hn         1 MEJ       0.318500
     35 H11         -4.4480     1.8400    -1.7760 hc         1 MEJ       0.079200
     36 H12         -3.7420     3.2240    -0.9300 hc         1 MEJ       0.079200
     37 H13         -5.7770     3.4090     0.4640 hc         1 MEJ       0.080200
     38 H14         -6.4820     2.0250    -0.3820 hc         1 MEJ       0.080200
     39 H15         -4.1220     4.6220    -4.7460 ha         1 MEJ       0.146000
     40 H16         -4.8880     6.1090    -6.5440 ha         1 MEJ       0.134000
     41 H17         -7.1050     7.1710    -6.4350 ha         1 MEJ       0.136000
     42 H18         -8.5940     6.7600    -4.5210 ha         1 MEJ       0.155000
     43 H19         -8.1060     4.1090    -0.6180 hn         1 MEJ       0.340500
@<TRIPOS>BOND
     1    19    20 ar
     2    19    18 ar
     3    20    21 ar
     4    18    17 ar
     5    21    22 1
     6    21    16 ar
     7    23    22 2
     8    17    16 ar
     9    22    24 1
    10     4     3 ar
    11     4     5 ar
    12    16    15 1
    13     3     2 ar
    14    24    14 1
    15    15    14 2
    16     5     6 ar
    17    12    13 1
    18    12    10 1
    19    14    13 1
    20     2     1 ar
    21    10     9 1
    22    10    11 2
    23     9     7 1
    24     6     1 ar
    25     6     7 1
    26     7     8 1
    27     1    25 1
    28     2    26 1
    29     3    27 1
    30     4    28 1
    31     5    29 1
    32     7    30 1
    33     8    31 1
    34     8    32 1
    35     8    33 1
    36     9    34 1
    37    12    35 1
    38    12    36 1
    39    13    37 1
    40    13    38 1
    41    17    39 1
    42    18    40 1
    43    19    41 1
    44    20    42 1
    45    24    43 1
@<TRIPOS>SUBSTRUCTURE
     1 MEJ         1 TEMP              0 ****  ****    0 ROOT
