@<TRIPOS>MOLECULE
MEK
   47    48     1     0     0
SMALL
bcc


@<TRIPOS>ATOM
      1 N1           0.0000     0.0000     0.0000 ns         1 MEK      -0.064400
      2 C4           4.6230     3.9620     1.7160 ca         1 MEK       0.172900
      3 C5           5.2710     2.8600     2.2460 ca         1 MEK      -0.069000
      4 C6           5.1260     1.6210     1.6510 ca         1 MEK       0.042900
      5 C7           2.0840     0.0000    -1.2760 ca         1 MEK      -0.140600
      6 C8           1.3930    -0.1200    -2.4860 ca         1 MEK      -0.057000
      7 C10          3.4690     0.0000    -3.6830 ca         1 MEK       0.100900
      8 C13          1.3470     0.0000     0.0000 c          1 MEK       0.592700
      9 C15         -2.7870    -0.0010     2.4590 c3         1 MEK       0.230400
     10 F3           4.1370    -0.0010    -4.8570 f          1 MEK      -0.112900
     11 C9           2.0850    -0.1200    -3.6760 ca         1 MEK      -0.107300
     12 C16          1.3370    -0.2490    -4.9780 c3         1 MEK       0.273700
     13 O4          -0.0630    -0.3570    -4.7140 os         1 MEK      -0.416600
     14 C18         -2.3400    -0.5930    -5.4880 c3         1 MEK       0.220400
     15 O5          -2.7580     0.6280    -4.8750 oh         1 MEK      -0.586800
     16 C11          4.1670     0.1150    -2.4930 ca         1 MEK       0.074900
     17 F2           5.5130     0.2270    -2.5090 f          1 MEK      -0.105900
     18 C12          3.4840     0.1160    -1.2840 ca         1 MEK       0.051600
     19 N2           4.1810     0.2320    -0.0860 nu         1 MEK      -0.230000
     20 C1           4.3300     1.4840     0.5180 ca         1 MEK       0.059600
     21 C2           3.6830     2.5930    -0.0090 ca         1 MEK      -0.164000
     22 C3           3.8280     3.8280     0.5930 ca         1 MEK      -0.044000
     23 I1           4.8450     5.8400     2.6210 i          1 MEK      -0.304900
     24 O1           1.9560     0.0000     1.0530 o          1 MEK      -0.614100
     25 O2          -0.7080    -0.0010     1.2270 os         1 MEK      -0.250900
     26 C14         -2.1280    -0.0010     1.0780 c3         1 MEK       0.190400
     27 O3          -2.4770     1.2190     3.1350 oh         1 MEK      -0.579800
     28 HN1         -0.5000     0.0390    -0.8660 hn         1 MEK       0.170500
     29 H5           5.8920     2.9690     3.1270 ha         1 MEK       0.128000
     30 H8           0.3140    -0.2140    -2.4870 ha         1 MEK       0.134000
     31 H15         -2.4140    -0.8380     3.0370 h1         1 MEK      -0.005300
     32 H15A        -3.8610    -0.0890     2.3470 h1         1 MEK      -0.005300
     33 H17         -0.5750    -1.3770    -6.4300 h1         1 MEK       0.000200
     34 H17A        -0.7270     0.3830    -6.5190 h1         1 MEK       0.000200
     35 H16          1.6750    -1.1350    -5.5020 h1         1 MEK       0.009700
     36 H16A         1.5230     0.6250    -5.5900 h1         1 MEK       0.009700
     37 H18         -2.4440    -1.4060    -4.7800 h1         1 MEK      -0.007800
     38 H18A        -2.9550    -0.7890    -6.3570 h1         1 MEK      -0.007800
     39 HO5         -3.6900     0.6060    -4.7340 ho         1 MEK       0.389000
     40 HN2          4.5980    -0.5770     0.3300 hn         1 MEK       0.310800
     41 H2           3.0620     2.4890    -0.8900 ha         1 MEK       0.117000
     42 H3           3.3220     4.6940     0.1820 ha         1 MEK       0.114000
     43 H14         -2.4340     0.8830     0.5330 h1         1 MEK       0.000700
     44 H14A        -2.4340    -0.8860     0.5330 h1         1 MEK       0.000700
     45 HO3         -2.9470     1.2550     3.9510 ho         1 MEK       0.393000
     46 F1           5.7590     0.5440     2.1680 f          1 MEK      -0.126900
     47 C17         -0.8680    -0.4860    -5.8880 c3         1 MEK       0.210400
@<TRIPOS>BOND
     1     1     8 1   
     2     1    25 1   
     3     1    28 1   
     4     2     3 ar  
     5     2    22 ar  
     6     2    23 1   
     7     3     4 ar  
     8     3    29 1   
     9     4    20 ar  
    10     4    46 1   
    11     5     6 ar  
    12     5     8 1   
    13     5    18 ar  
    14     6    11 ar  
    15     6    30 1   
    16     7    10 1   
    17     7    11 ar  
    18     7    16 ar  
    19     8    24 2   
    20     9    26 1   
    21     9    27 1   
    22     9    31 1   
    23     9    32 1   
    24    11    12 1   
    25    12    13 1   
    26    12    35 1   
    27    12    36 1   
    28    13    47 1   
    29    14    15 1   
    30    14    37 1   
    31    14    38 1   
    32    14    47 1   
    33    15    39 1   
    34    16    17 1   
    35    16    18 ar  
    36    18    19 1   
    37    19    20 1   
    38    19    40 1   
    39    20    21 ar  
    40    21    22 ar  
    41    21    41 1   
    42    22    42 1   
    43    25    26 1   
    44    26    43 1   
    45    26    44 1   
    46    27    45 1   
    47    33    47 1   
    48    34    47 1   
@<TRIPOS>SUBSTRUCTURE
     1 MEK         1 TEMP              0 ****  ****    0 ROOT
