@<TRIPOS>MOLECULE
molecule
   62    64     1     0     0
SMALL
bcc


@<TRIPOS>ATOM
      1 C1           0.0000     0.0000     0.0000 c3         1 MEL      -0.049700
      2 C2           1.5300     0.0000     0.0000 c3         1 MEL      -0.081400
      3 C3           2.0390     0.0000     1.4430 c3         1 MEL      -0.078900
      4 C4           1.5300     1.2480     2.1650 c3         1 MEL      -0.080400
      5 C5           0.0010     1.2480     2.1640 c3         1 MEL      -0.078900
      6 C6          -0.5090     1.2480     0.7210 c3         1 MEL      -0.081400
      7 N7          -1.9700    -0.1430    -1.4460 n7         1 MEL      -0.753200
      8 C8          -0.5090     0.0020    -1.4420 c3         1 MEL       0.098500
      9 C9          -0.1300     1.2980    -2.1090 c          1 MEL       0.690100
     10 O0          -0.8420     2.2720    -1.9880 o          1 MEL      -0.579100
     11 N11          0.9990     1.3760    -2.8390 nj         1 MEL      -0.498800
     12 C12          1.6250     2.4210    -3.6720 cy         1 MEL       0.028700
     13 C13          1.2090     2.3750    -5.1190 c          1 MEL       0.652100
     14 O14          0.3980     1.5530    -5.4900 o          1 MEL      -0.555100
     15 N15          1.7370     3.2470    -6.0000 ns         1 MEL      -0.602900
     16 C16          1.3310     3.2020    -7.4070 c3         1 MEL       0.149300
     17 C17          2.0610     4.2730    -8.1750 ca         1 MEL      -0.039300
     18 C18          3.2840     3.9910    -8.7580 ca         1 MEL      -0.102500
     19 C19          3.9580     4.9680    -9.4620 ca         1 MEL      -0.087000
     20 C20          3.4040     6.2410    -9.5870 ca         1 MEL      -0.203900
     21 C21          2.1740     6.5200    -8.9920 ca         1 MEL      -0.087000
     22 C22          1.5070     5.5340    -8.2950 ca         1 MEL      -0.102500
     23 C23          4.1210     7.2930   -10.3410 ce         1 MEL       0.548800
     24 N24          5.2710     7.0320   -10.8920 n2         1 MEL      -0.689100
     25 N25          3.5700     8.5510   -10.4630 nz         1 MEL      -0.802600
     26 C26          2.9590     1.7060    -3.3870 cy         1 MEL      -0.119400
     27 C27          2.1130     0.4470    -3.1280 cy         1 MEL       0.095000
     28 C28         -2.2540    -1.5820    -1.3790 c3         1 MEL       0.030800
     29 C29         -3.7390    -1.8080    -1.5030 c          1 MEL       0.891600
     30 O30         -4.2330    -3.0560    -1.4700 o          1 MEL      -0.838800
     31 O31         -4.4840    -0.8670    -1.6340 o          1 MEL      -0.838800
     32 H11         -0.3590    -0.8830     0.5140 hc         1 MEL       0.077700
     33 H21          1.8900     0.8860    -0.5090 hc         1 MEL       0.048700
     34 H22          1.8900    -0.8860    -0.5090 hc         1 MEL       0.048700
     35 H31          1.6760    -0.8840     1.9520 hc         1 MEL       0.037450
     36 H32          3.1230     0.0020     1.4410 hc         1 MEL       0.037450
     37 H41          1.8890     1.2440     3.1870 hc         1 MEL       0.030200
     38 H42          1.8900     2.1320     1.6530 hc         1 MEL       0.030200
     39 H51         -0.3590     2.1350     2.6720 hc         1 MEL       0.037450
     40 H52         -0.3600     0.3630     2.6730 hc         1 MEL       0.037450
     41 H61         -1.5920     1.2460     0.7230 hc         1 MEL       0.048700
     42 H62         -0.1450     2.1320     0.2110 hc         1 MEL       0.048700
     43 H71         -2.3400     0.2320    -2.2970 hn         1 MEL       0.375800
     44 H81         -0.0640    -0.8250    -1.9830 h1         1 MEL       0.025700
     45 H121         1.5710     3.4050    -3.2210 h1         1 MEL       0.082700
     46 H151         2.3750     3.9520    -5.6860 hn         1 MEL       0.309500
     47 H161         1.5740     2.2310    -7.8220 h1         1 MEL       0.075700
     48 H162         0.2630     3.3690    -7.4800 h1         1 MEL       0.075700
     49 H181         3.7140     3.0010    -8.6600 ha         1 MEL       0.170500
     50 H191         4.9140     4.7450    -9.9200 ha         1 MEL       0.136500
     51 H211         1.7380     7.5080    -9.0850 ha         1 MEL       0.136500
     52 H221         0.5510     5.7510    -7.8320 ha         1 MEL       0.170500
     53 H241         5.7560     7.7430   -11.4020 hn         1 MEL       0.429400
     54 H251         3.4470     8.9510    -9.5530 hn         1 MEL       0.464133
     55 H252         4.1810     9.1320   -11.0020 hn         1 MEL       0.464133
     56 H261         3.5910     1.6210    -4.2620 hc         1 MEL       0.059200
     57 H262         3.4570     2.0740    -2.4980 hc         1 MEL       0.059200
     58 H271         2.4370    -0.1120    -2.2580 h1         1 MEL       0.070200
     59 H272         1.9510    -0.1480    -4.0180 h1         1 MEL       0.070200
     60 H281        -1.9070    -1.9750    -0.4310 h1         1 MEL       0.023200
     61 H282        -1.7430    -2.0890    -2.1890 h1         1 MEL       0.023200
     62 H253         2.6850     8.4850   -10.9240 hn         1 MEL       0.464133
@<TRIPOS>BOND
     1     1     2 1
     2     1     6 1
     3     1     8 1
     4     1    32 1
     5     2     3 1
     6     2    33 1
     7     2    34 1
     8     3     4 1
     9     3    35 1
    10     3    36 1
    11     4     5 1
    12     4    37 1
    13     4    38 1
    14     5     6 1
    15     5    39 1
    16     5    40 1
    17     6    41 1
    18     6    42 1
    19     7     8 1
    20     7    28 1
    21     7    43 1
    22     8     9 1
    23     8    44 1
    24     9    10 2
    25     9    11 1
    26    11    12 1
    27    11    27 1
    28    12    13 1
    29    12    26 1
    30    12    45 1
    31    13    14 2
    32    13    15 1
    33    15    16 1
    34    15    46 1
    35    16    17 1
    36    16    47 1
    37    16    48 1
    38    17    18 ar
    39    17    22 ar
    40    18    19 ar
    41    18    49 1
    42    19    20 ar
    43    19    50 1
    44    20    21 ar
    45    20    23 1
    46    21    22 ar
    47    21    51 1
    48    22    52 1
    49    23    24 2
    50    23    25 1
    51    24    53 1
    52    25    54 1
    53    25    55 1
    54    26    27 1
    55    26    56 1
    56    26    57 1
    57    27    58 1
    58    27    59 1
    59    28    29 1
    60    28    60 1
    61    28    61 1
    62    29    30 1
    63    29    31 1
    64    62    25 1
@<TRIPOS>SUBSTRUCTURE
     1 MEL         1 TEMP              0 ****  ****    0 ROOT
