@<TRIPOS>MOLECULE
molecule
   50    52     1     0     0
SMALL
bcc


@<TRIPOS>ATOM
      1 C24          0.0000     0.0000     0.0000 c3         1 MEM       0.101300
      2 N23          1.4660     0.0000     0.0000 n          1 MEM      -0.501800
      3 C25          2.1990     0.0000     1.2680 c3         1 MEM       0.101300
      4 C22          2.1390    -0.0000    -1.1680 c          1 MEM       0.647100
      5 O26          1.5320    -0.0010    -2.2180 o          1 MEM      -0.602100
      6 C20          3.6470    -0.0010    -1.1680 c3         1 MEM       0.087500
      7 C21          4.1710     1.4320    -0.9370 c3         1 MEM      -0.071400
      8 N19          4.1470    -0.4420    -2.4830 n7         1 MEM      -0.811200
      9 C18          4.9340     0.6580    -3.0810 c3         1 MEM       0.154800
     10 C17          5.4050     1.5080    -1.8740 c3         1 MEM      -0.037600
     11 S16          5.7360     3.2160    -2.3740 ss         1 MEM      -0.145700
     12 C2           7.1420     2.9660    -3.4050 c2         1 MEM      -0.116600
     13 C1           8.4820     2.4370    -2.9520 c3         1 MEM      -0.033500
     14 C10          9.1210     3.3960    -1.9450 c3         1 MEM      -0.085100
     15 C5           9.3240     2.3640    -4.2340 cy         1 MEM       0.029700
     16 C6          10.2640     3.5590    -4.4420 cy         1 MEM      -0.215700
     17 C8          11.6530     3.1680    -4.9540 c3         1 MEM       0.161100
     18 C9          12.5060     4.4260    -5.1250 c3         1 MEM      -0.122100
     19 O13         12.2780     2.2930    -4.0120 oh         1 MEM      -0.610800
     20 C7           9.3140     4.0000    -5.5360 c          1 MEM       0.699500
     21 O12          9.3080     4.9210    -6.3260 o          1 MEM      -0.533500
     22 N4           8.4580     2.9400    -5.2830 nj         1 MEM      -0.295000
     23 C3           7.1960     3.2100    -4.7290 ce         1 MEM       0.036400
     24 C11          6.1070     3.7180    -5.4760 c          1 MEM       0.865800
     25 O15          6.1920     3.8170    -6.6860 o          1 MEM      -0.798800
     26 O14          4.9730     4.0920    -4.8470 o          1 MEM      -0.798800
     27 H1          -0.3610     0.1500     1.0100 h1         1 MEM       0.037200
     28 H2          -0.3610     0.8000    -0.6350 h1         1 MEM       0.037200
     29 H3          -0.3610    -0.9500    -0.3750 h1         1 MEM       0.037200
     30 H4           1.5120    -0.1950     2.0830 h1         1 MEM       0.037200
     31 H5           2.6670     0.9660     1.4140 h1         1 MEM       0.037200
     32 H6           2.9600    -0.7710     1.2450 h1         1 MEM       0.037200
     33 H7           4.0210    -0.6590    -0.3940 h1         1 MEM       0.062700
     34 H8           3.4260     2.1630    -1.2280 hc         1 MEM       0.056700
     35 H9           4.4680     1.5680     0.0960 hc         1 MEM       0.056700
     36 H10          3.3730    -0.6600    -3.0790 hn         1 MEM       0.375800
     37 H12          4.3110     1.2520    -3.7390 h1         1 MEM       0.073700
     38 H13          5.7880     0.2600    -3.6160 h1         1 MEM       0.073700
     39 H14          6.2720     1.0600    -1.4040 h1         1 MEM       0.055700
     40 H15          8.3690     1.4490    -2.5220 hc         1 MEM       0.051700
     41 H16          8.9730     4.4170    -2.2740 hc         1 MEM       0.035700
     42 H17          8.6610     3.2590    -0.9740 hc         1 MEM       0.035700
     43 H18         10.1830     3.1890    -1.8730 hc         1 MEM       0.035700
     44 H19          9.7400     1.3950    -4.4850 h1         1 MEM       0.088700
     45 H20         10.2740     4.2360    -3.5970 hc         1 MEM       0.105700
     46 H21         11.5580     2.6630    -5.9070 h1         1 MEM       0.040700
     47 H22         11.9160     5.2990    -4.8700 hc         1 MEM       0.042033
     48 H23         12.8360     4.5010    -6.1540 hc         1 MEM       0.042033
     49 H24         13.3680     4.3700    -4.4720 hc         1 MEM       0.042033
     50 H25         12.9090     1.7510    -4.4570 ho         1 MEM       0.394000
@<TRIPOS>BOND
     1    21    20 2
     2    25    24 1
     3    26    24 1
     4    20    22 1
     5    20    16 1
     6    24    23 1
     7    22    23 1
     8    22    15 1
     9    16    17 1
    10    16    15 1
    11    17    19 1
    12    17    18 1
    13    23    12 2
    14    15    13 1
    15    12    11 1
    16    12    13 1
    17    11    10 1
    18    14    13 1
    19    10     9 1
    20    10     7 1
    21     9     8 1
    22     7     6 1
    23     1     2 1
    24     5     4 2
    25     4     2 1
    26     4     6 1
    27     2     3 1
    28     6     8 1
    29     1    27 1
    30     1    28 1
    31     1    29 1
    32     3    30 1
    33     3    31 1
    34     3    32 1
    35     6    33 1
    36     7    34 1
    37     7    35 1
    38     8    36 1
    39     9    37 1
    40     9    38 1
    41    10    39 1
    42    13    40 1
    43    14    41 1
    44    14    42 1
    45    14    43 1
    46    15    44 1
    47    16    45 1
    48    17    46 1
    49    18    47 1
    50    18    48 1
    51    18    49 1
    52    19    50 1
@<TRIPOS>SUBSTRUCTURE
     1 MEM         1 TEMP              0 ****  ****    0 ROOT
