@<TRIPOS>MOLECULE
MES
   25    25     1     0     0
SMALL
bcc


@<TRIPOS>ATOM
      1 O1           0.0000     0.0000     0.0000 os         1 MES      -0.357600
      2 C2           1.4270     0.0000     0.0000 c3         1 MES       0.191400
      3 C3           1.9440     0.0000     1.4390 c3         1 MES      -0.057200
      4 N4           1.4830     1.2170     2.1220 nx         1 MES       0.009600
      5 C5           0.0150     1.2830     2.0520 c3         1 MES      -0.057200
      6 C6          -0.4240     1.2300     0.5880 c3         1 MES       0.191400
      7 C7           1.9070     1.1830     3.5270 c3         1 MES       0.017800
      8 C8           1.5320     2.5030     4.2060 c3         1 MES      -0.093600
      9 S            2.0550     2.4600     5.9420 s6         1 MES       0.947800
     10 O1S          3.4970     2.2730     6.0050 o          1 MES      -0.617867
     11 O2S          1.3880     1.3590     6.6190 o          1 MES      -0.617867
     12 O3S          1.6970     3.7160     6.5830 o          1 MES      -0.617867
     13 H21          1.7860     0.8860    -0.5100 h1         1 MES       0.037450
     14 H22          1.7860    -0.8860    -0.5100 h1         1 MES       0.037450
     15 H31          3.0270    -0.0210     1.4330 hx         1 MES       0.090200
     16 H32          1.5630    -0.8710     1.9590 hx         1 MES       0.090200
     17 HN4          1.8730     2.0200     1.6690 hn         1 MES       0.252800
     18 H51         -0.4090     0.4410     2.5860 hx         1 MES       0.090200
     19 H52         -0.3260     2.2090     2.4970 hx         1 MES       0.090200
     20 H61         -1.5040     1.2990     0.5350 h1         1 MES       0.037450
     21 H62          0.0220     2.0570     0.0500 h1         1 MES       0.037450
     22 H71          1.4120     0.3630     4.0340 hx         1 MES       0.090700
     23 H72          2.9800     1.0440     3.5770 hx         1 MES       0.090700
     24 H81          0.4590     2.6420     4.1560 h1         1 MES       0.057700
     25 H82          2.0270     3.3220     3.7000 h1         1 MES       0.057700
@<TRIPOS>BOND
     1     1     2 1   
     2     1     6 1   
     3     2     3 1   
     4     2    13 1   
     5     2    14 1   
     6     3     4 1   
     7     3    15 1   
     8     3    16 1   
     9     4     5 1   
    10     4     7 1   
    11     4    17 1   
    12     5     6 1   
    13     5    18 1   
    14     5    19 1   
    15     6    20 1   
    16     6    21 1   
    17     7     8 1   
    18     7    22 1   
    19     7    23 1   
    20     8     9 1   
    21     8    24 1   
    22     8    25 1   
    23     9    10 1   
    24     9    11 1   
    25     9    12 1   
@<TRIPOS>SUBSTRUCTURE
     1 MES         1 TEMP              0 ****  ****    0 ROOT
