@<TRIPOS>MOLECULE
molecule
   21    20     1     0     0
SMALL
bcc


@<TRIPOS>ATOM
      1 C8           0.0000     0.0000     0.0000 c3         1 MEV       0.136400
      2 O8           1.4290     0.0000     0.0000 oh         1 MEV      -0.629800
      3 C2          -0.5110     0.0000     1.4420 c3         1 MEV      -0.109400
      4 C3          -2.0400     0.0010     1.4420 c3         1 MEV       0.176800
      5 O7          -2.5160    -1.2210     0.8730 oh         1 MEV      -0.584800
      6 C4          -2.5510     0.1270     2.8790 c3         1 MEV      -0.207400
      7 C5          -4.0580     0.1260     2.8780 c          1 MEV       0.887600
      8 O3          -4.6950     0.0300     1.7780 o          1 MEV      -0.845800
      9 O4          -4.6960     0.2230     3.9790 o          1 MEV      -0.845800
     10 C6          -2.5500     1.1810     0.6150 c3         1 MEV      -0.080100
     11 H81         -0.3610    -0.8840    -0.5110 h1         1 MEV       0.026700
     12 H82         -0.3610     0.8840    -0.5110 h1         1 MEV       0.026700
     13 HX2          1.7430    -0.0240    -0.8890 ho         1 MEV       0.385000
     14 H21         -0.1490     0.8840     1.9530 hc         1 MEV       0.042200
     15 H22         -0.1500    -0.8850     1.9530 hc         1 MEV       0.042200
     16 HX          -2.3550    -1.9310     1.4710 ho         1 MEV       0.386000
     17 H41         -2.1900    -0.7100     3.4650 hc         1 MEV       0.031700
     18 H42         -2.1910     1.0520     3.3110 hc         1 MEV       0.031700
     19 H61         -1.8620     2.0120     0.7080 hc         1 MEV       0.043033
     20 H62         -2.6240     0.8880    -0.4260 hc         1 MEV       0.043033
     21 H63         -3.5270     1.4800     0.9750 hc         1 MEV       0.043033
@<TRIPOS>BOND
     1     1     2 1
     2     1     3 1
     3     1    11 1
     4     1    12 1
     5     2    13 1
     6     3     4 1
     7     3    14 1
     8     3    15 1
     9     4     5 1
    10     4     6 1
    11     4    10 1
    12     5    16 1
    13     6     7 1
    14     6    17 1
    15     6    18 1
    16     7     8 1
    17     7     9 1
    18    10    19 1
    19    10    20 1
    20    10    21 1
@<TRIPOS>SUBSTRUCTURE
     1 MEV         1 TEMP              0 ****  ****    0 ROOT
