@<TRIPOS>MOLECULE
MEV
   21    20     1     0     0
SMALL
bcc


@<TRIPOS>ATOM
      1 C8          0.0820   -0.0440   -0.0280 c3        1 MEV      0.130400
      2 O8          1.5030   -0.0860    0.0650 oh        1 MEV     -0.618800
      3 C2         -0.4670    0.0950    1.3790 c3        1 MEV     -0.075400
      4 C3         -2.0020    0.0400    1.4040 c3        1 MEV      0.182800
      5 O7         -2.3730   -1.1430    0.7000 oh        1 MEV     -0.656800
      6 C4         -2.4720   -0.0150    2.8580 c3        1 MEV     -0.225400
      7 C5         -4.0010   -0.0060    3.0120 c         1 MEV      0.909600
      8 O3         -4.7020   -0.6490    2.1690 o         1 MEV     -0.849300
      9 O4         -4.4930    0.6260    3.9860 o         1 MEV     -0.849300
     10 C6         -2.6020    1.2540    0.7010 c3        1 MEV     -0.117100
     11 H81        -0.2150    0.8330   -0.6630 h1        1 MEV      0.028700
     12 H82        -0.3050   -0.9870   -0.5000 h1        1 MEV      0.028700
     13 HX2         1.8210   -0.3480   -0.8050 ho        1 MEV      0.381000
     14 H21        -0.0610   -0.7360    2.0100 hc        1 MEV      0.045200
     15 H22        -0.1300    1.0650    1.8250 hc        1 MEV      0.045200
     16 HX         -3.3100   -1.3070    0.9120 ho        1 MEV      0.456000
     17 H41        -2.0460    0.8560    3.4150 hc        1 MEV      0.036200
     18 H42        -2.0930   -0.9570    3.3260 hc        1 MEV      0.036200
     19 H61        -2.3460    1.2420   -0.3840 hc        1 MEV      0.036367
     20 H62        -2.2160    2.1940    1.1600 hc        1 MEV      0.036367
     21 H63        -3.7140    1.2220    0.8110 hc        1 MEV      0.036367
@<TRIPOS>BOND
     1    1    2 1   
     2    1    3 1   
     3    1   11 1   
     4    1   12 1   
     5    2   13 1   
     6    3    4 1   
     7    3   14 1   
     8    3   15 1   
     9    4    5 1   
    10    4    6 1   
    11    4   10 1   
    12    5   16 1   
    13    6    7 1   
    14    6   17 1   
    15    6   18 1   
    16    7    8 1   
    17    7    9 1   
    18   10   19 1   
    19   10   20 1   
    20   10   21 1   
@<TRIPOS>SUBSTRUCTURE
     1 MEV         1 TEMP              0 ****  ****    0 ROOT
