@<TRIPOS>MOLECULE
MEW
   20    21     1     0     0
SMALL
bcc


@<TRIPOS>ATOM
      1 CAN          0.0000     0.0000     0.0000 c3         1 MEW      -0.029400
      2 CAT          1.5080     0.0000     0.0000 cc         1 MEW       0.286900
      3 NAO          2.1230     0.0000     1.1430 nd         1 MEW      -0.539100
      4 CAV          3.4780    -0.0000     1.2200 ca         1 MEW       0.154400
      5 CAK          4.1410    -0.0010     2.4490 ca         1 MEW      -0.097000
      6 CAG          5.5170    -0.0020     2.4810 ca         1 MEW      -0.063000
      7 CAH          6.2560    -0.0020     1.3050 ca         1 MEW      -0.129000
      8 CAL          5.6250    -0.0010     0.0810 ca         1 MEW      -0.015000
      9 CAW          4.2330    -0.0000     0.0260 ca         1 MEW      -0.216600
     10 CAU          3.5040    -0.0000    -1.2510 c          1 MEW       0.619100
     11 OAC          4.0940    -0.0000    -2.3150 o          1 MEW      -0.664500
     12 NAQ          2.1510    -0.0050    -1.1960 ns         1 MEW      -0.010400
     13 H1          -0.3610     0.0150     1.0210 hc         1 MEW       0.023033
     14 H2          -0.3610     0.8770    -0.5240 hc         1 MEW       0.023033
     15 H3          -0.3610    -0.8920    -0.4970 hc         1 MEW       0.023033
     16 H4           3.5750    -0.0010     3.3730 ha         1 MEW       0.120000
     17 H5           6.0300    -0.0030     3.4350 ha         1 MEW       0.102000
     18 H6           7.3380    -0.0030     1.3520 ha         1 MEW       0.107000
     19 H7           6.2070    -0.0010    -0.8330 ha         1 MEW       0.124000
     20 H8           1.6210    -0.0120    -2.0450 hn         1 MEW       0.181500
@<TRIPOS>BOND
     1     1     2 1   
     2     1    13 1   
     3     1    14 1   
     4     1    15 1   
     5     2     3 2   
     6     2    12 1   
     7     3     4 1   
     8     4     5 ar  
     9     4     9 ar  
    10     5     6 ar  
    11     5    16 1   
    12     6     7 ar  
    13     6    17 1   
    14     7     8 ar  
    15     7    18 1   
    16     8     9 ar  
    17     8    19 1   
    18     9    10 1   
    19    10    11 2   
    20    10    12 1   
    21    12    20 1   
@<TRIPOS>SUBSTRUCTURE
     1 MEW         1 TEMP              0 ****  ****    0 ROOT
