@<TRIPOS>MOLECULE
molecule
   20    21     1     0     0
SMALL
bcc


@<TRIPOS>ATOM
      1 CAN          0.0000     0.0000     0.0000 c3         1 MEW      -0.133400
      2 CAT          1.5080     0.0000     0.0000 cc         1 MEW       0.495900
      3 NAO          2.1230     0.0000     1.1430 nd         1 MEW      -0.649100
      4 CAV          3.4780    -0.0000     1.2200 ca         1 MEW       0.196400
      5 CAK          4.1410    -0.0010     2.4490 ca         1 MEW      -0.122000
      6 CAG          5.5170    -0.0020     2.4810 ca         1 MEW      -0.092000
      7 CAH          6.2560    -0.0020     1.3050 ca         1 MEW      -0.155000
      8 CAL          5.6250    -0.0010     0.0810 ca         1 MEW      -0.052000
      9 CAW          4.2330    -0.0000     0.0260 ca         1 MEW      -0.207600
     10 CAU          3.5040    -0.0000    -1.2510 c          1 MEW       0.708100
     11 OAC          4.0940    -0.0000    -2.3150 o          1 MEW      -0.623500
     12 NAQ          2.1510    -0.0050    -1.1960 ns         1 MEW      -0.473400
     13 H1          -0.3610     0.0150     1.0210 hc         1 MEW       0.065367
     14 H2          -0.3610     0.8770    -0.5240 hc         1 MEW       0.065367
     15 H3          -0.3610    -0.8920    -0.4970 hc         1 MEW       0.065367
     16 H4           3.5750    -0.0010     3.3730 ha         1 MEW       0.149000
     17 H5           6.0300    -0.0030     3.4350 ha         1 MEW       0.134000
     18 H6           7.3380    -0.0030     1.3520 ha         1 MEW       0.136000
     19 H7           6.2070    -0.0010    -0.8330 ha         1 MEW       0.154000
     20 H8           1.6210    -0.0120    -2.0450 hn         1 MEW       0.336500
@<TRIPOS>BOND
     1     5     6 ar
     2     5     4 ar
     3     6     7 ar
     4     3     4 1
     5     3     2 2
     6     4     9 ar
     7     1     2 1
     8     2    12 1
     9     7     8 ar
    10     9     8 ar
    11     9    10 1
    12    12    10 1
    13    10    11 2
    14     1    13 1
    15     1    14 1
    16     1    15 1
    17     5    16 1
    18     6    17 1
    19     7    18 1
    20     8    19 1
    21    12    20 1
@<TRIPOS>SUBSTRUCTURE
     1 MEW         1 TEMP              0 ****  ****    0 ROOT
