@<TRIPOS>MOLECULE
MEX
   28    30     1     0     0
SMALL
bcc


@<TRIPOS>ATOM
      1 C1           0.0000     0.0000     0.0000 ca         1 MEX      -0.020000
      2 C2           1.3870     0.0000     0.0000 ca         1 MEX      -0.148400
      3 C3           2.0820     0.0000     1.2080 ca         1 MEX       0.192100
      4 C4           1.3850     0.0000     2.4050 ca         1 MEX      -0.232000
      5 C5          -0.0020     0.0020     2.3990 ca         1 MEX       0.181100
      6 C6          -0.6920     0.0010     1.1960 ca         1 MEX      -0.174000
      7 O7          -0.6850     0.0010     3.5740 oh         1 MEX      -0.500100
      8 O8           3.4410    -0.0010     1.2110 oh         1 MEX      -0.477100
      9 N9           2.0900    -0.0010    -1.2160 n          1 MEX       0.200800
     10 C10          2.4990     1.1290    -1.9220 ca         1 MEX      -0.153400
     11 C11          3.1590     0.6720    -3.0650 ca         1 MEX      -0.165400
     12 N12          3.1320    -0.7200    -3.0170 ns         1 MEX       0.019900
     13 C13          2.4900    -1.0930    -1.8940 c          1 MEX       0.560500
     14 C14          2.3680     2.4910    -1.6970 ca         1 MEX      -0.077000
     15 C15          2.8920     3.3910    -2.6040 ca         1 MEX      -0.101000
     16 C16          3.5490     2.9390    -3.7370 ca         1 MEX      -0.099000
     17 C17          3.6830     1.5840    -3.9700 ca         1 MEX      -0.085000
     18 O18          2.2920    -2.2430    -1.5500 o          1 MEX      -0.714500
     19 H1          -0.5410    -0.0000    -0.9380 ha         1 MEX       0.114000
     20 H4           1.9230     0.0010     3.3450 ha         1 MEX       0.125000
     21 H6          -1.7750     0.0020     1.1950 ha         1 MEX       0.121000
     22 HO7         -0.8440     0.8900     3.8460 ho         1 MEX       0.407000
     23 HO8          3.7530    -0.5060     1.9440 ho         1 MEX       0.413000
     24 HN12         3.5280    -1.3370    -3.6970 hn         1 MEX       0.189500
     25 H14          1.8560     2.8490    -0.8120 ha         1 MEX       0.108000
     26 H15          2.7910     4.4550    -2.4280 ha         1 MEX       0.105000
     27 H16          3.9570     3.6500    -4.4440 ha         1 MEX       0.105000
     28 H17          4.1970     1.2330    -4.8570 ha         1 MEX       0.105000
@<TRIPOS>BOND
     1     1     2 ar  
     2     1     6 ar  
     3     1    19 1   
     4     2     3 ar  
     5     2     9 1   
     6     3     4 ar  
     7     3     8 1   
     8     4     5 ar  
     9     4    20 1   
    10     5     6 ar  
    11     5     7 1   
    12     6    21 1   
    13     7    22 1   
    14     8    23 1   
    15     9    10 1   
    16     9    13 1   
    17    10    11 ar  
    18    10    14 ar  
    19    11    12 1   
    20    11    17 ar  
    21    12    13 1   
    22    12    24 1   
    23    13    18 2   
    24    14    15 ar  
    25    14    25 1   
    26    15    16 ar  
    27    15    26 1   
    28    16    17 ar  
    29    16    27 1   
    30    17    28 1   
@<TRIPOS>SUBSTRUCTURE
     1 MEX         1 TEMP              0 ****  ****    0 ROOT
