@<TRIPOS>MOLECULE
molecule
   28    30     1     0     0
SMALL
bcc


@<TRIPOS>ATOM
      1 C1           0.0000     0.0000     0.0000 ca         1 MEX      -0.068000
      2 C2           1.3870     0.0000     0.0000 ca         1 MEX       0.023600
      3 C3           2.0820     0.0000     1.2080 ca         1 MEX       0.159100
      4 C4           1.3850     0.0000     2.4050 ca         1 MEX      -0.235000
      5 C5          -0.0020     0.0020     2.3990 ca         1 MEX       0.150100
      6 C6          -0.6920     0.0010     1.1960 ca         1 MEX      -0.181000
      7 O7          -0.6850     0.0010     3.5740 oh         1 MEX      -0.519100
      8 O8           3.4410    -0.0010     1.2110 oh         1 MEX      -0.491100
      9 N9           2.0900    -0.0010    -1.2160 n          1 MEX      -0.260200
     10 C10          2.4990     1.1290    -1.9220 ca         1 MEX       0.007600
     11 C11          3.1590     0.6720    -3.0650 ca         1 MEX      -0.005400
     12 N12          3.1320    -0.7200    -3.0170 ns         1 MEX      -0.448100
     13 C13          2.4900    -1.0930    -1.8940 c          1 MEX       0.808500
     14 C14          2.3680     2.4910    -1.6970 ca         1 MEX      -0.116000
     15 C15          2.8920     3.3910    -2.6040 ca         1 MEX      -0.128000
     16 C16          3.5490     2.9390    -3.7370 ca         1 MEX      -0.125000
     17 C17          3.6830     1.5840    -3.9700 ca         1 MEX      -0.127000
     18 O18          2.2920    -2.2430    -1.5500 o          1 MEX      -0.652500
     19 H1          -0.5410    -0.0000    -0.9380 ha         1 MEX       0.152000
     20 H4           1.9230     0.0010     3.3450 ha         1 MEX       0.149000
     21 H6          -1.7750     0.0020     1.1950 ha         1 MEX       0.149000
     22 HO7         -0.8440     0.8900     3.8460 ho         1 MEX       0.424000
     23 HO8          3.7530    -0.5060     1.9440 ho         1 MEX       0.429000
     24 HN12         3.5280    -1.3370    -3.6970 hn         1 MEX       0.361500
     25 H14          1.8560     2.8490    -0.8120 ha         1 MEX       0.139000
     26 H15          2.7910     4.4550    -2.4280 ha         1 MEX       0.136000
     27 H16          3.9570     3.6500    -4.4440 ha         1 MEX       0.136000
     28 H17          4.1970     1.2330    -4.8570 ha         1 MEX       0.134000
@<TRIPOS>BOND
     1     2     1 ar
     2     1     6 ar
     3     1    19 1
     4     9     2 1
     5     2     3 ar
     6     8     3 1
     7     3     4 ar
     8     4     5 ar
     9     4    20 1
    10     6     5 ar
    11     5     7 1
    12     6    21 1
    13     7    22 1
    14     8    23 1
    15    13     9 1
    16    10     9 1
    17    11    10 ar
    18    10    14 ar
    19    17    11 ar
    20    12    11 1
    21    12    13 1
    22    12    24 1
    23    18    13 2
    24    15    14 ar
    25    14    25 1
    26    16    15 ar
    27    15    26 1
    28    17    16 ar
    29    16    27 1
    30    17    28 1
@<TRIPOS>SUBSTRUCTURE
     1 MEX         1 TEMP              0 ****  ****    0 ROOT
