@<TRIPOS>MOLECULE
MEY
   52    56     1     0     0
SMALL
bcc


@<TRIPOS>ATOM
      1 C1           0.0000     0.0000     0.0000 ca         1 MEY      -0.106000
      2 C2           1.3940     0.0000     0.0000 ca         1 MEY      -0.073000
      3 C3           0.0020     0.0050     4.7830 ca         1 MEY      -0.143000
      4 C4          -0.7000     0.0020     1.1670 ca         1 MEY      -0.078000
      5 C5           2.0940     0.0000     1.1670 ca         1 MEY      -0.122000
      6 C6          -0.7000     0.0050     3.6170 ca         1 MEY      -0.027000
      7 C7           4.4910     4.4980     1.9140 ca         1 MEY      -0.086000
      8 C8           5.2870     5.4940     1.3840 ca         1 MEY      -0.080000
      9 C9           1.3950     0.0040     4.7830 ca         1 MEY       0.029000
     10 C10          6.1300     4.0630     3.6100 ca         1 MEY      -0.062000
     11 C11          6.9660     8.8920     0.8170 ca         1 MEY      -0.021000
     12 C12          8.0090     8.1990    -1.6600 ca         1 MEY      -0.229000
     13 C13         -0.0110     0.0030     2.3920 ca         1 MEY      -0.067000
     14 C14          1.4060     0.0020     2.3910 ca         1 MEY       0.048000
     15 C15          4.9120     3.7850     3.0230 ca         1 MEY      -0.120300
     16 C16          6.5130     5.7810     1.9660 ca         1 MEY      -0.148400
     17 C17          6.9360     5.0610     3.0850 ca         1 MEY      -0.166400
     18 C18          7.5020     7.6290     0.6200 ca         1 MEY      -0.139400
     19 C19          8.0260     7.2820    -0.6220 ca         1 MEY       0.193100
     20 C20          7.4720     9.4620    -1.4600 ca         1 MEY       0.187100
     21 C21          2.0950     0.0030     3.6160 ca         1 MEY      -0.149500
     22 C22          6.9510     9.8070    -0.2210 ca         1 MEY      -0.110600
     23 C23          8.5070     6.5470     2.5740 c          1 MEY       0.561500
     24 C24          4.0340     2.7000     3.5940 c3         1 MEY       0.292100
     25 N25          8.1860     5.5660     3.4390 ns         1 MEY       0.021900
     26 N26          7.5180     6.7000     1.6740 n          1 MEY       0.200800
     27 N27          4.3580     1.4220     2.9530 n7         1 MEY      -0.589100
     28 O28          9.5360     7.1970     2.6030 o          1 MEY      -0.709500
     29 O29          4.2400     0.0600     5.0080 o          1 MEY      -0.588800
     30 O30          4.2700    -1.0360     2.7630 o          1 MEY      -0.588800
     31 O31          8.5520     6.0430    -0.8180 oh         1 MEY      -0.476100
     32 O32          7.4560    10.3630    -2.4780 oh         1 MEY      -0.491100
     33 S33          3.8570     0.0010     3.6410 sy         1 MEY       1.046200
     34 Cl34         6.2790    11.3880     0.0280 cl         1 MEY       0.005600
     35 H1          -0.5340    -0.0000    -0.9430 ha         1 MEY       0.103000
     36 H2           1.9270    -0.0020    -0.9430 ha         1 MEY       0.103000
     37 H3          -0.5310     0.0060     5.7270 ha         1 MEY       0.109000
     38 H4          -1.7830     0.0020     1.1520 ha         1 MEY       0.106000
     39 H5           3.1780    -0.0000     1.1520 ha         1 MEY       0.134000
     40 H6          -1.7830     0.0060     3.6330 ha         1 MEY       0.105000
     41 H8           4.9550     6.0500     0.5150 ha         1 MEY       0.110000
     42 H9           1.9290     0.0040     5.7260 ha         1 MEY       0.127000
     43 H10          6.4560     3.5020     4.4780 ha         1 MEY       0.116000
     44 H11          6.5580     9.1630     1.7830 ha         1 MEY       0.125000
     45 H12          8.4160     7.9310    -2.6270 ha         1 MEY       0.128000
     46 H24          2.9940     2.9420     3.4110 h1         1 MEY       0.018200
     47 H24A         4.2040     2.6220     4.6610 h1         1 MEY       0.018200
     48 HN25         8.7490     5.2520     4.2050 hn         1 MEY       0.192500
     49 HN27         4.9300     1.4060     2.1320 hn         1 MEY       0.355800
     50 HO31         9.2790     6.1000    -1.4160 ho         1 MEY       0.415000
     51 HO32         6.7180    10.1910    -3.0380 ho         1 MEY       0.410000
     52 H7           3.5330     4.2730     1.4600 ha         1 MEY       0.110000
@<TRIPOS>BOND
     1     1     2 ar  
     2     1     4 ar  
     3     1    35 1   
     4     2     5 ar  
     5     2    36 1   
     6     3     6 ar  
     7     3     9 ar  
     8     3    37 1   
     9     4    13 ar  
    10     4    38 1   
    11     5    14 ar  
    12     5    39 1   
    13     6    13 ar  
    14     6    40 1   
    15     7     8 ar  
    16     7    15 ar  
    17     7    52 1   
    18     8    16 ar  
    19     8    41 1   
    20     9    21 ar  
    21     9    42 1   
    22    10    15 ar  
    23    10    17 ar  
    24    10    43 1   
    25    11    18 ar  
    26    11    22 ar  
    27    11    44 1   
    28    12    19 ar  
    29    12    20 ar  
    30    12    45 1   
    31    13    14 ar  
    32    14    21 ar  
    33    15    24 1   
    34    16    17 ar  
    35    16    26 1   
    36    17    25 1   
    37    18    19 ar  
    38    18    26 1   
    39    19    31 1   
    40    20    22 ar  
    41    20    32 1   
    42    21    33 1   
    43    22    34 1   
    44    23    25 1   
    45    23    26 1   
    46    23    28 2   
    47    24    27 1   
    48    24    46 1   
    49    24    47 1   
    50    25    48 1   
    51    27    33 1   
    52    27    49 1   
    53    29    33 2   
    54    30    33 2   
    55    31    50 1   
    56    32    51 1   
@<TRIPOS>SUBSTRUCTURE
     1 MEY         1 TEMP              0 ****  ****    0 ROOT
