@<TRIPOS>MOLECULE
molecule
   52    56     1     0     0
SMALL
bcc


@<TRIPOS>ATOM
      1 C1           0.0000     0.0000     0.0000 ca         1 MEY      -0.132000
      2 C2           1.3940     0.0000     0.0000 ca         1 MEY      -0.099000
      3 C3           0.0020     0.0050     4.7830 ca         1 MEY      -0.161000
      4 C4          -0.7000     0.0020     1.1670 ca         1 MEY      -0.105000
      5 C5           2.0940     0.0000     1.1670 ca         1 MEY      -0.139000
      6 C6          -0.7000     0.0050     3.6170 ca         1 MEY      -0.055000
      7 C7           4.4910     4.4980     1.9140 ca         1 MEY      -0.113000
      8 C8           5.2870     5.4940     1.3840 ca         1 MEY      -0.119000
      9 C9           1.3950     0.0040     4.7830 ca         1 MEY      -0.002000
     10 C10          6.1300     4.0630     3.6100 ca         1 MEY      -0.108000
     11 C11          6.9660     8.8920     0.8170 ca         1 MEY      -0.065000
     12 C12          8.0090     8.1990    -1.6600 ca         1 MEY      -0.233000
     13 C13         -0.0110     0.0030     2.3920 ca         1 MEY      -0.059000
     14 C14          1.4060     0.0020     2.3910 ca         1 MEY       0.044000
     15 C15          4.9120     3.7850     3.0230 ca         1 MEY      -0.104300
     16 C16          6.5130     5.7810     1.9660 ca         1 MEY       0.013600
     17 C17          6.9360     5.0610     3.0850 ca         1 MEY      -0.005400
     18 C18          7.5020     7.6290     0.6200 ca         1 MEY       0.030600
     19 C19          8.0260     7.2820    -0.6220 ca         1 MEY       0.162100
     20 C20          7.4720     9.4620    -1.4600 ca         1 MEY       0.159100
     21 C21          2.0950     0.0030     3.6160 ca         1 MEY      -0.308500
     22 C22          6.9510     9.8070    -0.2210 ca         1 MEY      -0.024600
     23 C23          8.5070     6.5470     2.5740 c          1 MEY       0.808500
     24 C24          4.0340     2.7000     3.5940 c3         1 MEY       0.288100
     25 N25          8.1860     5.5660     3.4390 ns         1 MEY      -0.447100
     26 N26          7.5180     6.7000     1.6740 n          1 MEY      -0.260200
     27 N27          4.3580     1.4220     2.9530 n7         1 MEY      -0.916100
     28 O28          9.5360     7.1970     2.6030 o          1 MEY      -0.646500
     29 O29          4.2400     0.0600     5.0080 o          1 MEY      -0.637300
     30 O30          4.2700    -1.0360     2.7630 o          1 MEY      -0.637300
     31 O31          8.5520     6.0430    -0.8180 oh         1 MEY      -0.488100
     32 O32          7.4560    10.3630    -2.4780 oh         1 MEY      -0.506100
     33 S33          3.8570     0.0010     3.6410 sy         1 MEY       1.427200
     34 Cl34         6.2790    11.3880     0.0280 cl         1 MEY      -0.080400
     35 H1          -0.5340    -0.0000    -0.9430 ha         1 MEY       0.132000
     36 H2           1.9270    -0.0020    -0.9430 ha         1 MEY       0.134000
     37 H3          -0.5310     0.0060     5.7270 ha         1 MEY       0.137000
     38 H4          -1.7830     0.0020     1.1520 ha         1 MEY       0.134000
     39 H5           3.1780    -0.0000     1.1520 ha         1 MEY       0.147000
     40 H6          -1.7830     0.0060     3.6330 ha         1 MEY       0.136000
     41 H8           4.9550     6.0500     0.5150 ha         1 MEY       0.142000
     42 H9           1.9290     0.0040     5.7260 ha         1 MEY       0.156000
     43 H10          6.4560     3.5020     4.4780 ha         1 MEY       0.145000
     44 H11          6.5580     9.1630     1.7830 ha         1 MEY       0.165000
     45 H12          8.4160     7.9310    -2.6270 ha         1 MEY       0.155000
     46 H24          2.9940     2.9420     3.4110 h1         1 MEY       0.054700
     47 H24A         4.2040     2.6220     4.6610 h1         1 MEY       0.054700
     48 HN25         8.7490     5.2520     4.2050 hn         1 MEY       0.365500
     49 HN27         4.9300     1.4060     2.1320 hn         1 MEY       0.459800
     50 HO31         9.2790     6.1000    -1.4160 ho         1 MEY       0.432000
     51 HO32         6.7180    10.1910    -3.0380 ho         1 MEY       0.429000
     52 H7           3.5330     4.2730     1.4600 ha         1 MEY       0.141000
@<TRIPOS>BOND
     1     1     2 ar
     2     1     4 ar
     3     2     5 ar
     4     3     6 ar
     5     3     9 ar
     6     4    13 ar
     7     5    14 ar
     8     6    13 ar
     9     7     8 ar
    10     7    15 ar
    11     8    16 ar
    12     9    21 ar
    13    10    15 ar
    14    10    17 ar
    15    11    18 ar
    16    11    22 ar
    17    12    19 ar
    18    12    20 ar
    19    13    14 ar
    20    14    21 ar
    21    15    24 1
    22    16    17 ar
    23    16    26 1
    24    17    25 1
    25    18    19 ar
    26    18    26 1
    27    19    31 1
    28    20    22 ar
    29    20    32 1
    30    21    33 1
    31    22    34 1
    32    23    25 1
    33    23    26 1
    34    23    28 2
    35    24    27 1
    36    27    33 1
    37    29    33 2
    38    30    33 2
    39     1    35 1
    40     2    36 1
    41     3    37 1
    42     4    38 1
    43     5    39 1
    44     6    40 1
    45     7    52 1
    46     8    41 1
    47     9    42 1
    48    10    43 1
    49    11    44 1
    50    12    45 1
    51    24    46 1
    52    24    47 1
    53    25    48 1
    54    27    49 1
    55    31    50 1
    56    32    51 1
@<TRIPOS>SUBSTRUCTURE
     1 MEY         1 TEMP              0 ****  ****    0 ROOT
