@<TRIPOS>MOLECULE
molecule
   13    12     1     0     0
SMALL
bcc


@<TRIPOS>ATOM
      1 O4           0.0000     0.0000     0.0000 o          1 MEZ      -0.886300
      2 C5           1.2300     0.0000     0.0000 c          1 MEZ       0.899800
      3 O3           1.8770     0.0000     1.1240 o          1 MEZ      -0.886300
      4 C3           1.9240    -0.0930    -1.3960 ce         1 MEZ      -0.225400
      5 C4           1.0130    -0.2570    -2.6230 c3         1 MEZ      -0.012900
      6 C2           3.3470    -0.0270    -1.4190 cf         1 MEZ      -0.227200
      7 C1           3.9900    -0.2930    -2.6440 c          1 MEZ       0.930800
      8 O1           4.4230    -1.4140    -2.6720 o          1 MEZ      -0.874800
      9 O2           3.8740     0.5140    -3.5510 o          1 MEZ      -0.874800
     10 H41          0.0060    -0.4900    -2.2970 hc         1 MEZ       0.015033
     11 H42          1.0050     0.6640    -3.1920 hc         1 MEZ       0.015033
     12 H43          1.3860    -1.0620    -3.2440 hc         1 MEZ       0.015033
     13 H2           3.9120     0.0800    -0.5000 ha         1 MEZ       0.111000
@<TRIPOS>BOND
     1     1     2 1
     2     2     3 1
     3     2     4 1
     4     4     5 1
     5     4     6 2
     6     5    10 1
     7     5    11 1
     8     5    12 1
     9     6     7 1
    10     6    13 1
    11     7     8 1
    12     7     9 1
@<TRIPOS>SUBSTRUCTURE
     1 MEZ         1 TEMP              0 ****  ****    0 ROOT
