@<TRIPOS>MOLECULE
MEZ
   13    12     1     0     0
SMALL
bcc


@<TRIPOS>ATOM
      1 O4         -0.0870    0.5620   -0.2200 o         1 MEZ     -0.882300
      2 C5          1.1860    0.5200   -0.2520 c         1 MEZ      0.893800
      3 O3          1.8750    0.9160    0.7390 o         1 MEZ     -0.882300
      4 C3          1.8710   -0.0170   -1.4900 ce        1 MEZ     -0.180400
      5 C4          0.9990   -0.8220   -2.3780 c3        1 MEZ     -0.034900
      6 C2          3.1600    0.2390   -1.7540 cf        1 MEZ     -0.204200
      7 C1          3.9630   -0.1720   -2.9540 c         1 MEZ      0.889800
      8 O1          3.8160   -1.3120   -3.4970 o         1 MEZ     -0.884800
      9 O2          4.8300    0.6500   -3.4000 o         1 MEZ     -0.884800
     10 H41         1.5500   -1.1650   -3.2890 hc        1 MEZ      0.019700
     11 H42         0.1080   -0.2170   -2.6790 hc        1 MEZ      0.019700
     12 H43         0.6250   -1.7190   -1.8230 hc        1 MEZ      0.019700
     13 H2          3.7310    0.8540   -1.0360 ha        1 MEZ      0.110000
@<TRIPOS>BOND
     1    1    2 1   
     2    2    3 1   
     3    2    4 1   
     4    4    5 1   
     5    4    6 2   
     6    5   10 1   
     7    5   11 1   
     8    5   12 1   
     9    6    7 1   
    10    6   13 1   
    11    7    8 1   
    12    7    9 1   
@<TRIPOS>SUBSTRUCTURE
     1 MEZ         1 TEMP              0 ****  ****    0 ROOT
