@<TRIPOS>MOLECULE
molecule
   49    49     1     0     0
SMALL
bcc


@<TRIPOS>ATOM
      1 C2           0.0000     0.0000     0.0000 c3         1 MF2       0.102300
      2 C3           1.5290     0.0000     0.0000 c3         1 MF2       0.132600
      3 O4           2.0110     0.0000     1.3430 os         1 MF2      -0.404600
      4 C7           2.1330     1.3070     3.3690 c3         1 MF2      -0.088100
      5 C8           2.0380    -1.2480    -0.7230 c3         1 MF2      -0.088100
      6 C10         -2.5760     1.0670    -0.6430 c3         1 MF2      -0.083400
      7 C11         -4.0930     0.9230    -0.5170 c3         1 MF2      -0.083400
      8 C12         -4.7200     0.8980    -1.9120 c3         1 MF2      -0.080400
      9 C13         -6.2380     0.7530    -1.7860 c3         1 MF2      -0.081400
     10 C14         -6.8660     0.7300    -3.1800 c3         1 MF2      -0.078400
     11 C15         -8.3830     0.5850    -3.0550 c3         1 MF2      -0.101400
     12 C16         -9.0120     0.5610    -4.4500 c3         1 MF2       0.106000
     13 N1          -0.4910     1.2300     0.6320 n3         1 MF2      -0.672600
     14 C5           1.5750     1.2160     1.9470 c3         1 MF2       0.132600
     15 C6           0.0470     1.2470     1.9980 c3         1 MF2       0.102300
     16 N17        -10.4650     0.4220    -4.3300 ns         1 MF2      -0.597900
     17 C18        -11.2320     0.3790    -5.4360 c          1 MF2       0.654900
     18 O19        -10.7200     0.4540    -6.5320 o          1 MF2      -0.612100
     19 H21         -0.3590    -0.0480    -1.0210 h1         1 MF2       0.046950
     20 H22         -0.3600    -0.8580     0.5550 h1         1 MF2       0.046950
     21 H3           1.8870     0.8870    -0.5080 h1         1 MF2       0.050200
     22 H71          1.8240     2.2420     3.8200 hc         1 MF2       0.044367
     23 H72          3.2150     1.2630     3.3360 hc         1 MF2       0.044367
     24 H73          1.7560     0.4800     3.9590 hc         1 MF2       0.044367
     25 H81          1.6380    -2.1320    -0.2420 hc         1 MF2       0.044367
     26 H82          1.7160    -1.2230    -1.7570 hc         1 MF2       0.044367
     27 H83          3.1200    -1.2730    -0.6830 hc         1 MF2       0.044367
     28 H91         -2.3450     1.9300     1.3120 h1         1 MF2       0.037200
     29 H92         -2.1810     0.1690     1.2690 h1         1 MF2       0.037200
     30 H101        -2.1790     0.2290    -1.2030 hc         1 MF2       0.050200
     31 H102        -2.3430     1.9900    -1.1600 hc         1 MF2       0.050200
     32 H111        -4.3260    -0.0010     0.0000 hc         1 MF2       0.041200
     33 H112        -4.4910     1.7600     0.0440 hc         1 MF2       0.041200
     34 H121        -4.4880     1.8220    -2.4280 hc         1 MF2       0.043700
     35 H122        -4.3220     0.0610    -2.4720 hc         1 MF2       0.043700
     36 H131        -6.6360     1.5900    -1.2250 hc         1 MF2       0.041700
     37 H132        -6.4710    -0.1710    -1.2700 hc         1 MF2       0.041700
     38 H141        -6.6330     1.6530    -3.6960 hc         1 MF2       0.046700
     39 H142        -6.4680    -0.1070    -3.7410 hc         1 MF2       0.046700
     40 H151        -8.7810     1.4220    -2.4940 hc         1 MF2       0.044700
     41 H152        -8.6160    -0.3390    -2.5380 hc         1 MF2       0.044700
     42 H161        -8.7790     1.4850    -4.9660 h1         1 MF2       0.054200
     43 H162        -8.6140    -0.2760    -5.0110 h1         1 MF2       0.054200
     44 H5           1.9300     2.0540     1.3610 h1         1 MF2       0.050200
     45 H61         -0.2770     2.1500     2.5010 h1         1 MF2       0.046950
     46 H62         -0.3130     0.3790     2.5370 h1         1 MF2       0.046950
     47 HNH        -10.8880     0.3580    -3.4250 hn         1 MF2       0.311500
     48 H18        -12.3050     0.2570    -5.3470 h5         1 MF2       0.021200
     49 C9          -1.9480     1.0920     0.7520 c3         1 MF2       0.135800
@<TRIPOS>BOND
     1     1     2 1
     2     1    13 1
     3     1    19 1
     4     1    20 1
     5     2     3 1
     6     2     5 1
     7     2    21 1
     8     3    14 1
     9     4    14 1
    10     4    22 1
    11     4    23 1
    12     4    24 1
    13     5    25 1
    14     5    26 1
    15     5    27 1
    16    49     6 1
    17    49    13 1
    18    49    28 1
    19    49    29 1
    20     6     7 1
    21     6    30 1
    22     6    31 1
    23     7     8 1
    24     7    32 1
    25     7    33 1
    26     8     9 1
    27     8    34 1
    28     8    35 1
    29     9    10 1
    30     9    36 1
    31     9    37 1
    32    10    11 1
    33    10    38 1
    34    10    39 1
    35    11    12 1
    36    11    40 1
    37    11    41 1
    38    12    16 1
    39    12    42 1
    40    12    43 1
    41    13    15 1
    42    14    15 1
    43    14    44 1
    44    15    45 1
    45    15    46 1
    46    16    17 1
    47    16    47 1
    48    17    18 2
    49    17    48 1
@<TRIPOS>SUBSTRUCTURE
     1 MF2         1 TEMP              0 ****  ****    0 ROOT
