@<TRIPOS>MOLECULE
MF5
   32    34     1     0     0
SMALL
bcc


@<TRIPOS>ATOM
      1 FAE          0.0000     0.0000     0.0000 f          1 MF5      -0.064500
      2 CAS          1.3510     0.0000     0.0000 ca         1 MF5       0.110000
      3 CAQ          2.0430     0.0000     1.2000 ca         1 MF5       0.039500
      4 FAC          1.3680    -0.0000     2.3700 f          1 MF5      -0.050000
      5 CAP          3.4300    -0.0010     1.1990 ca         1 MF5       0.097000
      6 FAB          4.1060    -0.0010     2.3690 f          1 MF5      -0.046000
      7 CAR          4.1210    -0.0010    -0.0010 ca         1 MF5       0.039500
      8 FAD          5.4730    -0.0020    -0.0030 f          1 MF5      -0.050000
      9 CAT          3.4270    -0.0010    -1.2000 ca         1 MF5       0.110000
     10 FAF          4.1010    -0.0020    -2.3710 f          1 MF5      -0.064500
     11 CAU          2.0420    -0.0060    -1.1990 ca         1 MF5      -0.167000
     12 CAL          1.2880    -0.0130    -2.5040 c3         1 MF5       0.115000
     13 OAN          1.0500     1.3320    -2.9220 os         1 MF5      -0.128000
     14 NAM          0.3430     1.4390    -4.1450 n2         1 MF5       0.199000
     15 CAG          0.0640     2.6030    -4.6310 c2         1 MF5      -0.345000
     16 CAO         -0.6730     2.7150    -5.9070 c3         1 MF5      -0.280000
     17 CAJ         -1.0660     1.5580    -6.5820 c2         1 MF5      -0.064000
     18 CAH         -1.7560     1.6780    -7.7750 c2         1 MF5      -0.022000
     19 CAI         -2.0310     2.9500    -8.2560 c2         1 MF5      -0.031000
     20 CAK         -1.6110     4.0540    -7.5350 c2         1 MF5      -0.235000
     21 NAV         -0.9610     3.9130    -6.4000 n3         1 MF5       0.648000
     22 CAA         -0.5390     5.1080    -5.6650 c3         1 MF5      -0.193000
     23 HAL1         1.8740    -0.5270    -3.2560 h1         1 MF5       0.070000
     24 HAL2         0.3420    -0.5230    -2.3710 h1         1 MF5       0.070000
     25 HAG1         0.5090     2.4640    -5.6090 DU         1 MF5       0.268000
     26 HAJ         -0.8350     0.5800    -6.1780 ha         1 MF5       0.160000
     27 HAH         -2.0750     0.7990    -8.3220 ha         1 MF5       0.150000
     28 HAI         -2.5680     3.0780    -9.1890 ha         1 MF5       0.154000
     29 HAK         -1.8270     5.0490    -7.9080 h4         1 MF5       0.178000
     30 HAA1        -0.8980     5.0500    -4.6450 h1         1 MF5       0.110667
     31 HAA2         0.5420     5.1690    -5.6650 h1         1 MF5       0.110667
     32 HAA3        -0.9500     5.9900    -6.1430 h1         1 MF5       0.110667
@<TRIPOS>BOND
     1     1     2 1   
     2     2     3 1   
     3     2    11 1   
     4     3     4 1   
     5     3     5 1   
     6     5     6 1   
     7     5     7 1   
     8     7     8 1   
     9     7     9 1   
    10     9    10 1   
    11     9    11 1   
    12    11    12 1   
    13    12    13 1   
    14    12    23 1   
    15    12    24 1   
    16    13    14 1   
    17    14    15 1   
    18    15    16 1   
    19    15    25 1   
    20    16    17 1   
    21    16    21 1   
    22    16    25 1   
    23    17    18 1   
    24    17    26 1   
    25    18    19 1   
    26    18    27 1   
    27    19    20 1   
    28    19    28 1   
    29    20    21 1   
    30    20    29 1   
    31    21    22 1   
    32    22    30 1   
    33    22    31 1   
    34    22    32 1   
@<TRIPOS>SUBSTRUCTURE
     1 MF5         1 TEMP              0 ****  ****    0 ROOT
