@<TRIPOS>MOLECULE
molecule
   32    33     1     0     0
SMALL
bcc


@<TRIPOS>ATOM
      1 FAE          0.0000     0.0000     0.0000 f          1 MF5      -0.104900
      2 CAS          1.3510     0.0000     0.0000 ca         1 MF5       0.156900
      3 CAQ          2.0430     0.0000     1.2000 ca         1 MF5       0.074400
      4 FAC          1.3680    -0.0000     2.3700 f          1 MF5      -0.090900
      5 CAP          3.4300    -0.0010     1.1990 ca         1 MF5       0.133900
      6 FAB          4.1060    -0.0010     2.3690 f          1 MF5      -0.082900
      7 CAR          4.1210    -0.0010    -0.0010 ca         1 MF5       0.074400
      8 FAD          5.4730    -0.0020    -0.0030 f          1 MF5      -0.090900
      9 CAT          3.4270    -0.0010    -1.2000 ca         1 MF5       0.156900
     10 FAF          4.1010    -0.0020    -2.3710 f          1 MF5      -0.104900
     11 CAU          2.0420    -0.0060    -1.1990 ca         1 MF5      -0.166300
     12 CAL          1.2880    -0.0130    -2.5040 c3         1 MF5       0.197700
     13 OAN          1.0500     1.3320    -2.9220 os         1 MF5      -0.162300
     14 NAM          0.3430     1.4390    -4.1450 n2         1 MF5      -0.357200
     15 CAG          0.0640     2.6030    -4.6310 ce         1 MF5       0.360800
     16 CAO         -0.6730     2.7150    -5.9070 ca         1 MF5      -0.025200
     17 CAJ         -1.0660     1.5580    -6.5820 ca         1 MF5      -0.104000
     18 CAH         -1.7560     1.6780    -7.7750 ca         1 MF5      -0.021000
     19 CAI         -2.0310     2.9500    -8.2560 ca         1 MF5      -0.130000
     20 CAK         -1.6110     4.0540    -7.5350 ca         1 MF5      -0.039300
     21 NAV         -0.9610     3.9130    -6.4000 na         1 MF5       0.075900
     22 CAA         -0.5390     5.1080    -5.6650 c3         1 MF5      -0.026400
     23 HAL1         0.3420    -0.5230    -2.3710 h1         1 MF5       0.070700
     24 HAL2         1.8740    -0.5270    -3.2560 h1         1 MF5       0.070700
     25 HAG1         0.3710     3.4980    -4.1030 h4         1 MF5       0.031800
     26 HAJ         -0.8350     0.5800    -6.1780 ha         1 MF5       0.209000
     27 HAH         -2.0750     0.7990    -8.3220 ha         1 MF5       0.192000
     28 HAI         -2.5680     3.0780    -9.1890 ha         1 MF5       0.198000
     29 HAK         -1.8270     5.0490    -7.9080 h4         1 MF5       0.208000
     30 HAA1        -0.9900     5.1040    -4.6800 h1         1 MF5       0.098367
     31 HAA2        -0.8550     5.9940    -6.2040 h1         1 MF5       0.098367
     32 HAA3         0.5400     5.1100    -5.5680 h1         1 MF5       0.098367
@<TRIPOS>BOND
     1     1     2 1
     2     2     3 ar
     3     2    11 ar
     4     3     4 1
     5     3     5 ar
     6     5     6 1
     7     5     7 ar
     8     7     8 1
     9     7     9 ar
    10     9    10 1
    11     9    11 ar
    12    11    12 1
    13    12    13 1
    14    13    14 1
    15    14    15 2
    16    15    16 1
    17    16    17 ar
    18    16    21 2
    19    17    18 ar
    20    18    19 ar
    21    19    20 ar
    22    20    21 1
    23    21    22 1
    24    12    23 1
    25    12    24 1
    26    15    25 1
    27    17    26 1
    28    18    27 1
    29    19    28 1
    30    20    29 1
    31    22    30 1
    32    22    31 1
    33    22    32 1
@<TRIPOS>SUBSTRUCTURE
     1 MF5         1 TEMP              0 ****  ****    0 ROOT
