@<TRIPOS>MOLECULE
MF8
   21    20     1     0     0
SMALL
bcc


@<TRIPOS>ATOM
      1 N08          0.0000     0.0000     0.0000 n2         1 MF8      -0.598100
      2 C07          1.3020     0.0000     0.0000 c2         1 MF8       0.285100
      3 N06          1.9920     0.0000     1.1950 nu         1 MF8      -0.373200
      4 N09          1.9900    -0.0020    -1.1900 nz         1 MF8       0.149400
      5 C01          3.3530    -0.2720     3.6240 c3         1 MF8       0.199100
      6 N02          4.0640     0.0130     2.3760 nh         1 MF8      -0.444600
      7 N05          3.9970     0.3940     0.0900 n2         1 MF8      -0.956100
      8 C04          3.3650     0.1400     1.2000 c2         1 MF8       0.563100
      9 C03          5.5220     0.1610     2.3810 c3         1 MF8       0.199100
     10 H08         -0.5010     0.0010     0.8660 hn         1 MF8       0.372400
     11 H091         2.6650    -0.7410    -1.1850 hn         1 MF8       0.243800
     12 H092         1.3490    -0.1410    -1.9460 hn         1 MF8       0.243800
     13 H06          1.4920    -0.0580     2.0600 hn         1 MF8       0.331800
     14 H05          4.9920     0.4960     0.0930 hn         1 MF8       0.389400
     15 H031         5.8900     0.0810     3.3960 h1         1 MF8       0.025200
     16 H032         5.7880     1.1310     1.9760 h1         1 MF8       0.025200
     17 H033         5.9670    -0.6180     1.7730 h1         1 MF8       0.025200
     18 H011         4.0630    -0.3280     4.4400 h1         1 MF8       0.025200
     19 H012         2.8300    -1.2170     3.5350 h1         1 MF8       0.025200
     20 H013         2.6390     0.5180     3.8210 h1         1 MF8       0.025200
     21 H093         2.4370     0.8840    -1.3190 hn         1 MF8       0.243800
@<TRIPOS>BOND
     1     1     2 2   
     2     1    10 1   
     3     2     3 1   
     4     2     4 1   
     5     3     8 1   
     6     3    13 1   
     7     4    11 1   
     8     4    12 1   
     9     4    21 1   
    10     5     6 1   
    11     5    18 1   
    12     5    19 1   
    13     5    20 1   
    14     6     8 1   
    15     6     9 1   
    16     7     8 2   
    17     7    14 1   
    18     9    15 1   
    19     9    16 1   
    20     9    17 1   
@<TRIPOS>SUBSTRUCTURE
     1 MF8         1 TEMP              0 ****  ****    0 ROOT
