@<TRIPOS>MOLECULE
molecule
   21    20     1     0     0
SMALL
bcc


@<TRIPOS>ATOM
      1 N08          0.0000     0.0000     0.0000 n2         1 MF8      -0.768100
      2 C07          1.3020     0.0000     0.0000 c2         1 MF8       0.724100
      3 N06          1.9920     0.0000     1.1950 nu         1 MF8      -0.816200
      4 N09          1.9900    -0.0020    -1.1900 nz         1 MF8      -0.798600
      5 C01          3.3530    -0.2720     3.6240 c3         1 MF8       0.202100
      6 N02          4.0640     0.0130     2.3760 nh         1 MF8      -0.734600
      7 N05          3.9970     0.3940     0.0900 n2         1 MF8      -1.207100
      8 C04          3.3650     0.1400     1.2000 c2         1 MF8       0.965100
      9 C03          5.5220     0.1610     2.3810 c3         1 MF8       0.202100
     10 H08         -0.5020    -0.0010    -0.8660 hn         1 MF8       0.449400
     11 H091         2.5470    -0.8310    -1.2540 hn         1 MF8       0.472133
     12 H092         1.3400     0.0220    -1.9510 hn         1 MF8       0.472133
     13 H06          1.4980    -0.1260     2.0560 hn         1 MF8       0.495800
     14 H05          4.1520     1.3420    -0.1920 hn         1 MF8       0.474400
     15 H031         5.8970     0.0100     3.3860 h1         1 MF8       0.066033
     16 H032         5.7850     1.1570     2.0430 h1         1 MF8       0.066033
     17 H033         5.9620    -0.5730     1.7170 h1         1 MF8       0.066033
     18 H011         4.0670    -0.3650     4.4340 h1         1 MF8       0.066033
     19 H012         2.8000    -1.1980     3.5220 h1         1 MF8       0.066033
     20 H013         2.6650     0.5370     3.8410 h1         1 MF8       0.066033
     21 H093         2.5650     0.8150    -1.2460 hn         1 MF8       0.472133
@<TRIPOS>BOND
     1     1     2 2
     2     2     4 1
     3     2     3 1
     4     3     8 1
     5     8     7 2
     6     8     6 1
     7     6     9 1
     8     6     5 1
     9     1    10 1
    10     4    11 1
    11     4    12 1
    12     3    13 1
    13     7    14 1
    14     9    15 1
    15     9    16 1
    16     9    17 1
    17     5    18 1
    18     5    19 1
    19     5    20 1
    20    21     4 1
@<TRIPOS>SUBSTRUCTURE
     1 MF8         1 TEMP              0 ****  ****    0 ROOT
