@<TRIPOS>MOLECULE
molecule
   53    53     1     0     0
SMALL
bcc


@<TRIPOS>ATOM
      1 N3           0.0000     0.0000     0.0000 nz         1 MFD      -0.781600
      2 C2           1.9780    -1.2470    -0.7230 c3         1 MFD      -0.224700
      3 C1           1.4760    -1.2470    -2.1440 c          1 MFD       0.875600
      4 O1           1.7990    -2.2530    -2.9710 o          1 MFD      -0.817300
      5 OXT          0.7800    -0.3410    -2.5370 o          1 MFD      -0.817300
      6 C3           1.4680     0.0000     0.0000 c3         1 MFD       0.125700
      7 CM2          3.5080    -1.2470    -0.7240 c3         1 MFD      -0.066100
      8 C7           3.9890     1.9900     3.6760 c2         1 MFD      -0.119200
      9 C6           3.2260     0.9960     3.2420 ce         1 MFD      -0.138200
     10 C4           1.9720     0.0000     1.4200 c2         1 MFD      -0.253200
     11 C'           4.4410     2.8450     7.3770 c3         1 MFD      -0.048100
     12 C9           3.9580     3.0120     5.9360 c3         1 MFD       0.132100
     13 C8           4.5910     1.9320     5.0570 c3         1 MFD      -0.062500
     14 C4'          2.6750     5.8620     9.8310 ca         1 MFD      -0.129000
     15 C3'          2.0360     4.6480     9.6600 ca         1 MFD      -0.125500
     16 C2'          2.6070     3.6720     8.8650 ca         1 MFD      -0.123500
     17 C1'          3.8170     3.9100     8.2420 ca         1 MFD      -0.092300
     18 C6'          4.4590     5.1210     8.4190 ca         1 MFD      -0.123500
     19 C5'          3.8860     6.0990     9.2090 ca         1 MFD      -0.125500
     20 O9           4.3370     4.3020     5.4530 os         1 MFD      -0.402600
     21 CM9          3.1310     4.9930     5.1270 c3         1 MFD       0.113700
     22 CM8          6.1000     2.1670     4.9670 c3         1 MFD      -0.069100
     23 CM6          2.8620    -0.1370     4.1680 c3         1 MFD      -0.053900
     24 HN31        -0.3340     0.3830     0.8620 hn         1 MFD       0.447467
     25 HN32        -0.3340    -0.9380    -0.0990 hn         1 MFD       0.447467
     26 H2           1.6180    -2.1330    -0.2130 hc         1 MFD       0.047700
     27 H3           1.9450     0.7010    -0.6750 hx         1 MFD       0.148700
     28 HM21         3.3920    -0.1850    -0.9020 hc         1 MFD       0.051367
     29 HM22         3.9400    -1.7820    -1.5610 hc         1 MFD       0.051367
     30 HM23         3.9410    -1.4790     0.2410 hc         1 MFD       0.051367
     31 H7           4.2500     2.8020     3.0080 ha         1 MFD       0.137000
     32 H5           2.9950     1.8090     1.1890 ha         1 MFD       0.138000
     33 H4           1.7110    -0.8130     2.0860 ha         1 MFD       0.146000
     34 H'1          5.5200     2.9400     7.4090 hc         1 MFD       0.059700
     35 H'2          4.1530     1.8670     7.7440 hc         1 MFD       0.059700
     36 H9           2.8790     2.9170     5.9040 h1         1 MFD       0.046700
     37 H8           4.1790     1.0190     5.4710 hc         1 MFD       0.064700
     38 H6'          5.3330     5.2500     7.7910 ha         1 MFD       0.134000
     39 H5'          4.3880     7.0490     9.3450 ha         1 MFD       0.130500
     40 HM91         2.2790     4.3850     5.4040 h1         1 MFD       0.032700
     41 HM92         3.0960     5.9320     5.6670 h1         1 MFD       0.032700
     42 HM93         3.1040     5.1880     4.0610 h1         1 MFD       0.032700
     43 HM81         6.2880     3.1830     4.6410 hc         1 MFD       0.046033
     44 HM82         6.5490     2.0100     5.9400 hc         1 MFD       0.046033
     45 HM83         6.5310     1.4740     4.2540 hc         1 MFD       0.046033
     46 HM61         2.3770     0.2610     5.0520 hc         1 MFD       0.045367
     47 HM62         2.1870    -0.8160     3.6610 hc         1 MFD       0.045367
     48 HM63         3.7600    -0.6690     4.4580 hc         1 MFD       0.045367
     49 C5           2.7340     0.9950     1.8550 ce         1 MFD      -0.053000
     50 H4'          2.2260     6.6280    10.4520 ha         1 MFD       0.130000
     51 H3'          1.0870     4.4620    10.1480 ha         1 MFD       0.130500
     52 H33         -0.3340     0.5590    -0.7600 hn         1 MFD       0.447467
     53 H2'          2.1060     2.7210     8.7310 ha         1 MFD       0.134000
@<TRIPOS>BOND
     1     1     6 1
     2     1    24 1
     3     1    25 1
     4     2     3 1
     5     2     6 1
     6     2     7 1
     7     2    26 1
     8     3     4 1
     9     3     5 1
    10     6    10 1
    11     6    27 1
    12     7    28 1
    13     7    29 1
    14     7    30 1
    15     8     9 2
    16     8    13 1
    17     8    31 1
    18     9    49 1
    19     9    23 1
    20    49    10 2
    21    49    32 1
    22    10    33 1
    23    11    12 1
    24    11    17 1
    25    11    34 1
    26    11    35 1
    27    12    13 1
    28    12    20 1
    29    12    36 1
    30    13    22 1
    31    13    37 1
    32    14    15 ar
    33    14    19 ar
    34    14    50 1
    35    15    16 ar
    36    15    51 1
    37    16    17 ar
    38    16    53 1
    39    17    18 ar
    40    18    19 ar
    41    18    38 1
    42    19    39 1
    43    20    21 1
    44    21    40 1
    45    21    41 1
    46    21    42 1
    47    22    43 1
    48    22    44 1
    49    22    45 1
    50    23    46 1
    51    23    47 1
    52    23    48 1
    53    52     1 1
@<TRIPOS>SUBSTRUCTURE
     1 MFD         1 TEMP              0 ****  ****    0 ROOT
