@<TRIPOS>MOLECULE
MFD
   53    57     1     0     0
SMALL
bcc


@<TRIPOS>ATOM
      1 N3           0.0000     0.0000     0.0000 nz         1 MFD       0.797000
      2 C2           1.9780    -1.2470    -0.7230 c3         1 MFD      -0.238000
      3 C1           1.4760    -1.2470    -2.1440 c2         1 MFD       0.384000
      4 O1           1.7990    -2.2530    -2.9710 o          1 MFD      -0.587000
      5 OXT          0.7800    -0.3410    -2.5370 o          1 MFD      -0.587000
      6 C3           1.4680     0.0000     0.0000 DU         1 MFD      -0.140000
      7 CM2          3.5080    -1.2470    -0.7240 c3         1 MFD      -0.099000
      8 C7           3.9890     1.9900     3.6760 c2         1 MFD      -0.367000
      9 C6           3.2260     0.9960     3.2420 c3         1 MFD       0.041000
     10 C4           1.9720     0.0000     1.4200 c2         1 MFD      -0.433000
     11 C'           4.4410     2.8450     7.3770 c3         1 MFD      -0.061000
     12 C9           3.9580     3.0120     5.9360 DU         1 MFD      -0.056000
     13 C8           4.5910     1.9320     5.0570 DU         1 MFD      -0.359000
     14 C4'          2.6750     5.8620     9.8310 ca         1 MFD      -0.097000
     15 C3'          2.0360     4.6480     9.6600 ca         1 MFD      -0.094000
     16 C2'          2.6070     3.6720     8.8650 ca         1 MFD      -0.095500
     17 C1'          3.8170     3.9100     8.2420 ca         1 MFD      -0.108000
     18 C6'          4.4590     5.1210     8.4190 ca         1 MFD      -0.095500
     19 C5'          3.8860     6.0990     9.2090 ca         1 MFD      -0.094000
     20 O9           4.3370     4.3020     5.4530 os         1 MFD      -0.222000
     21 CM9          3.1310     4.9930     5.1270 c3         1 MFD       0.026000
     22 CM8          6.1000     2.1670     4.9670 c3         1 MFD       0.011000
     23 CM6          2.8620    -0.1370     4.1680 c3         1 MFD      -0.074000
     24 HN31        -0.3340     0.3370     0.8810 hn         1 MFD       0.024667
     25 HN32        -0.3340    -0.9320    -0.1490 hn         1 MFD       0.024667
     26 H2           1.6180    -2.1330    -0.2130 hc         1 MFD       0.086000
     27 H3           1.9450     0.7010    -0.6750 hx         1 MFD       0.176000
     28 HM21         3.3920    -0.1850    -0.9020 hc         1 MFD       0.065667
     29 HM22         3.9400    -1.7820    -1.5610 hc         1 MFD       0.065667
     30 HM23         3.9410    -1.4790     0.2410 hc         1 MFD       0.065667
     31 H7           3.4300     2.2770     4.5590 DU         1 MFD       0.166000
     32 H5           3.5640     0.3960     2.2100 DU         1 MFD       0.100000
     33 H4           2.5700    -0.2730     0.5590 DU         1 MFD       0.149000
     34 H'1          4.1530     1.8670     7.7440 hc         1 MFD       0.081000
     35 H'2          5.5200     2.9400     7.4090 hc         1 MFD       0.081000
     36 H9           2.8790     2.9180     5.9040 ha         1 MFD       0.076000
     37 H8           3.6150     2.1730     5.4600 DU         1 MFD       0.289000
     38 H6'          5.3330     5.2500     7.7910 ha         1 MFD       0.110000
     39 H5'          4.3880     7.0490     9.3450 ha         1 MFD       0.105000
     40 HM91         2.9050     4.8490     4.0770 h1         1 MFD       0.036667
     41 HM92         3.2560     6.0510     5.3270 h1         1 MFD       0.036667
     42 HM93         2.3180     4.6050     5.7280 h1         1 MFD       0.036667
     43 HM81         6.2880     3.1900     4.6640 hc         1 MFD       0.044667
     44 HM82         6.5280     1.4900     4.2370 hc         1 MFD       0.044667
     45 HM83         6.5520     1.9880     5.9350 hc         1 MFD       0.044667
     46 HM61         3.5990    -0.2070     4.9590 hc         1 MFD       0.070333
     47 HM62         2.8390    -1.0660     3.6120 hc         1 MFD       0.070333
     48 HM63         1.8860     0.0500     4.6000 hc         1 MFD       0.070333
     49 C5           2.7340     0.9950     1.8550 c2         1 MFD       0.082000
     50 H4'          2.2260     6.6280    10.4520 ha         1 MFD       0.105000
     51 H3'          1.0870     4.4620    10.1480 ha         1 MFD       0.105000
     52 H33         -0.3340     0.5980    -0.7300 hn         1 MFD       0.024667
     53 H2'          2.1060     2.7210     8.7310 ha         1 MFD       0.110000
@<TRIPOS>BOND
     1     1     6 1   
     2     1    24 1   
     3     1    25 1   
     4     1    52 1   
     5     2     3 1   
     6     2     6 1   
     7     2     7 1   
     8     2    26 1   
     9     3     4 1   
    10     3     5 1   
    11     6    10 1   
    12     6    27 1   
    13     6    33 1   
    14     7    28 1   
    15     7    29 1   
    16     7    30 1   
    17     8     9 1   
    18     8    13 1   
    19     8    31 1   
    20     9    23 1   
    21     9    32 1   
    22     9    49 1   
    23    10    33 1   
    24    10    49 1   
    25    11    12 1   
    26    11    17 1   
    27    11    34 1   
    28    11    35 1   
    29    12    13 1   
    30    12    20 1   
    31    12    36 1   
    32    12    37 1   
    33    13    22 1   
    34    13    31 1   
    35    13    37 1   
    36    14    15 1   
    37    14    19 1   
    38    14    50 1   
    39    15    16 1   
    40    15    51 1   
    41    16    17 1   
    42    16    53 1   
    43    17    18 1   
    44    18    19 1   
    45    18    38 1   
    46    19    39 1   
    47    20    21 1   
    48    21    40 1   
    49    21    41 1   
    50    21    42 1   
    51    22    43 1   
    52    22    44 1   
    53    22    45 1   
    54    23    46 1   
    55    23    47 1   
    56    23    48 1   
    57    32    49 1   
@<TRIPOS>SUBSTRUCTURE
     1 MFD         1 TEMP              0 ****  ****    0 ROOT
