@<TRIPOS>MOLECULE
MFG
   25    25     1     0     0
SMALL
bcc


@<TRIPOS>ATOM
      1 F1           0.0000     0.0000     0.0000 f          1 MFG      -0.126900
      2 C2           1.3470     0.0000     0.0000 ca         1 MFG       0.099900
      3 C3           2.0490     0.0000     1.2060 ca         1 MFG      -0.130000
      4 C4           3.4460    -0.0110     1.1930 ca         1 MFG      -0.070500
      5 C5           4.1380    -0.0080    -0.0240 ca         1 MFG      -0.104300
      6 C6           5.6510    -0.0290    -0.0590 c3         1 MFG       0.032900
      7 C7           6.2720     1.3390     0.2010 c3         1 MFG       0.032800
      8 C8           7.5480     1.2060     1.0080 ce         1 MFG      -0.250800
      9 C9           7.5750     1.7880     2.3760 ce         1 MFG       0.465500
     10 N10          8.1680     1.2540     3.3580 n2         1 MFG      -0.632100
     11 C13          3.4310    -0.0130    -1.2270 ca         1 MFG      -0.070500
     12 C14          2.0370    -0.0040    -1.2160 ca         1 MFG      -0.130000
     13 CAA          8.6230     0.5850     0.4760 c2         1 MFG      -0.136000
     14 H3           1.5130    -0.0020     2.1480 ha         1 MFG       0.119500
     15 H14          1.4880    -0.0080    -2.1500 ha         1 MFG       0.119500
     16 H4           3.9950    -0.0110     2.1270 ha         1 MFG       0.110000
     17 H6C1         5.9720    -0.3780    -1.0330 hc         1 MFG       0.019700
     18 H6C2         6.0070    -0.7220     0.6940 hc         1 MFG       0.019700
     19 H13          3.9660    -0.0140    -2.1690 ha         1 MFG       0.110000
     20 H7C1         5.5660     1.9520     0.7490 hc         1 MFG       0.022700
     21 H7C2         6.4970     1.8140    -0.7460 hc         1 MFG       0.022700
     22 H9           7.0550     2.7250     2.5350 h4         1 MFG      -0.017200
     23 HAA          8.5720     0.1760    -0.5260 ha         1 MFG       0.090500
     24 H10          8.6560     0.3880     3.2370 hn         1 MFG       0.314400
     25 HAB          9.5350     0.4910     1.0540 ha         1 MFG       0.090500
@<TRIPOS>BOND
     1     1     2 1   
     2     2     3 ar  
     3     2    12 ar  
     4     3     4 ar  
     5     3    14 1   
     6     4     5 ar  
     7     4    16 1   
     8     5     6 1   
     9     5    11 ar  
    10     6     7 1   
    11     6    17 1   
    12     6    18 1   
    13     7     8 1   
    14     7    20 1   
    15     7    21 1   
    16     8     9 1   
    17     8    13 2   
    18     9    10 2   
    19     9    22 1   
    20    10    24 1   
    21    11    12 ar  
    22    11    19 1   
    23    12    15 1   
    24    13    23 1   
    25    13    25 1   
@<TRIPOS>SUBSTRUCTURE
     1 MFG         1 TEMP              0 ****  ****    0 ROOT
