@<TRIPOS>MOLECULE
molecule
   25    25     1     0     0
SMALL
bcc


@<TRIPOS>ATOM
      1 F1           0.0000     0.0000     0.0000 f          1 MFG      -0.140900
      2 C2           1.3470     0.0000     0.0000 ca         1 MFG       0.127900
      3 C3           2.0490     0.0000     1.2060 ca         1 MFG      -0.166000
      4 C4           3.4460    -0.0110     1.1930 ca         1 MFG      -0.100000
      5 C5           4.1380    -0.0080    -0.0240 ca         1 MFG      -0.099300
      6 C6           5.6510    -0.0290    -0.0590 c3         1 MFG      -0.032100
      7 C7           6.2720     1.3390     0.2010 c3         1 MFG      -0.033200
      8 C8           7.5480     1.2060     1.0080 ce         1 MFG      -0.204800
      9 C9           7.5750     1.7880     2.3760 ce         1 MFG       0.497500
     10 N10          8.1680     1.2540     3.3580 n2         1 MFG      -0.794100
     11 C13          3.4310    -0.0130    -1.2270 ca         1 MFG      -0.100000
     12 C14          2.0370    -0.0040    -1.2160 ca         1 MFG      -0.166000
     13 CAA          8.6230     0.5850     0.4760 c2         1 MFG      -0.168000
     14 H3           1.5130    -0.0020     2.1480 ha         1 MFG       0.145500
     15 H14          1.4880    -0.0080    -2.1500 ha         1 MFG       0.145500
     16 H4           3.9950    -0.0110     2.1270 ha         1 MFG       0.138500
     17 H6C1         5.9720    -0.3780    -1.0330 hc         1 MFG       0.053200
     18 H6C2         6.0070    -0.7220     0.6940 hc         1 MFG       0.053200
     19 H13          3.9660    -0.0140    -2.1690 ha         1 MFG       0.138500
     20 H7C1         6.4970     1.8140    -0.7460 hc         1 MFG       0.051700
     21 H7C2         5.5660     1.9520     0.7490 hc         1 MFG       0.051700
     22 H9           7.0550     2.7250     2.5350 h4         1 MFG      -0.050200
     23 HAA          9.5360     0.4960     1.0520 ha         1 MFG       0.124000
     24 H10          8.1500     1.6960     4.2550 hn         1 MFG       0.402400
     25 HAB          8.5740     0.1810    -0.5270 ha         1 MFG       0.124000
@<TRIPOS>BOND
     1     1     2 1
     2     2     3 ar
     3     2    12 ar
     4     3     4 ar
     5     4     5 ar
     6     5     6 1
     7     5    11 ar
     8     6     7 1
     9     7     8 1
    10     8     9 1
    11     8    13 2
    12     9    10 2
    13    11    12 ar
    14     3    14 1
    15    12    15 1
    16     4    16 1
    17     6    17 1
    18     6    18 1
    19    11    19 1
    20     7    20 1
    21     7    21 1
    22     9    22 1
    23    13    23 1
    24    10    24 1
    25    13    25 1
@<TRIPOS>SUBSTRUCTURE
     1 MFG         1 TEMP              0 ****  ****    0 ROOT
