@<TRIPOS>MOLECULE
MFM
   36    38     1     0     0
SMALL
bcc


@<TRIPOS>ATOM
      1 C4         -0.0870    0.2340    0.1900 ca        1 MFM     -0.093500
      2 C3          1.3020    0.3090    0.1210 ca        1 MFM     -0.131000
      3 C2          2.0570    0.2060    1.2930 ca        1 MFM      0.024400
      4 CL1         3.7550    0.3000    1.2190 cl        1 MFM     -0.103400
      5 C1          1.4320    0.0270    2.5320 ca        1 MFM     -0.131000
      6 C6          0.0450   -0.0490    2.5970 ca        1 MFM     -0.093500
      7 C5         -0.7260    0.0530    1.4280 ca        1 MFM     -0.139500
      8 C7         -2.1630   -0.0290    1.5080 cc        1 MFM      0.327200
      9 O1         -2.8690    0.0900    0.3070 os        1 MFM     -0.293800
     10 C8         -3.0520   -0.2130    2.5630 cd        1 MFM     -0.270300
     11 C9         -4.3710   -0.2100    2.0000 cd        1 MFM     -0.236300
     12 C10        -4.2250   -0.0240    0.6260 cc        1 MFM      0.278500
     13 C11        -5.2120    0.0510   -0.4040 ce        1 MFM     -0.131800
     14 C12        -5.0580    0.2700   -1.7210 cd        1 MFM     -0.103600
     15 C14        -3.7800    0.5090   -2.4590 c         1 MFM      0.693700
     16 O2         -2.6540    0.5830   -1.9600 o         1 MFM     -0.538500
     17 S1         -6.3470    0.3150   -2.8310 ss        1 MFM     -0.160200
     18 C13        -5.3240    0.6070   -4.2470 c         1 MFM      0.398000
     19 S2         -6.0340    0.7540   -5.6140 s         1 MFM     -0.329400
     20 N1         -4.0080    0.6850   -3.8560 n         1 MFM     -0.421400
     21 C15        -2.8910    0.8190   -4.7870 c3        1 MFM      0.097000
     22 C16        -2.2280   -0.4840   -5.1900 c3        1 MFM     -0.226400
     23 C17        -0.9710   -0.1860   -6.0420 c         1 MFM      0.920600
     24 O4         -0.5510    1.0040   -6.0980 o         1 MFM     -0.837300
     25 O3         -0.4350   -1.1680   -6.6230 o         1 MFM     -0.837300
     26 H4         -0.6940    0.3160   -0.7330 ha        1 MFM      0.162500
     27 H3          1.7940    0.4470   -0.8550 ha        1 MFM      0.152500
     28 H1          2.0310   -0.0540    3.4510 ha        1 MFM      0.152500
     29 H6         -0.4510   -0.1910    3.5690 ha        1 MFM      0.162500
     30 H8         -2.8060   -0.3360    3.6130 ha        1 MFM      0.156000
     31 H9         -5.3020   -0.3310    2.5470 ha        1 MFM      0.155000
     32 H11        -6.2390   -0.1000   -0.0140 ha        1 MFM      0.142000
     33 H151       -3.2730    1.3460   -5.7080 h1        1 MFM      0.090200
     34 H152       -2.1200    1.4780   -4.2900 h1        1 MFM      0.090200
     35 H161       -1.9010   -1.0610   -4.2900 hc        1 MFM      0.038700
     36 H162       -2.9210   -1.1250   -5.7870 hc        1 MFM      0.038700
@<TRIPOS>BOND
     1    1    2 ar
     2    1    7 ar
     3    1   26 1
     4    2    3 ar
     5    2   27 1
     6    3    4 1
     7    3    5 ar
     8    5    6 ar
     9    5   28 1
    10    6    7 ar
    11    6   29 1
    12    7    8 1
    13    8    9 1
    14    8   10 2
    15    9   12 1
    16   10   11 1
    17   10   30 1
    18   11   12 2
    19   11   31 1
    20   12   13 1
    21   13   14 2
    22   13   32 1
    23   14   15 1
    24   14   17 1
    25   15   16 2
    26   15   20 1
    27   17   18 1
    28   18   19 2
    29   18   20 1
    30   20   21 1
    31   21   22 1
    32   21   33 1
    33   21   34 1
    34   22   23 1
    35   22   35 1
    36   22   36 1
    37   23   24 1
    38   23   25 1
@<TRIPOS>SUBSTRUCTURE
     1 MFM         1 TEMP              0 ****  ****    0 ROOT
