@<TRIPOS>MOLECULE
MFP
   60    62     1     0     0
SMALL
bcc


@<TRIPOS>ATOM
      1 C22          0.0000     0.0000     0.0000 ca         1 MFP      -0.167000
      2 C1           4.1690     1.9990    -1.6720 ca         1 MFP       0.709900
      3 C5           4.1670     0.6560     0.1990 ca         1 MFP       0.564200
      4 C4           5.5550     0.5710     0.1280 ca         1 MFP      -0.499600
      5 C3           6.2050     1.2460    -0.8990 ca         1 MFP       0.589200
      6 C11          9.5010     3.2290    -4.1040 ca         1 MFP      -0.068300
      7 C10          9.0910     1.9210    -4.2880 ca         1 MFP      -0.082000
      8 C9           8.4610     1.2410    -3.2630 ca         1 MFP       0.044100
      9 C8           8.2300     1.8770    -2.0500 ca         1 MFP       0.017600
     10 C12          9.2770     3.8610    -2.8940 ca         1 MFP      -0.093000
     11 C16          8.3720     0.4250    -0.0460 c3         1 MFP       0.231900
     12 C13          8.6440     3.1900    -1.8680 ca         1 MFP      -0.074000
     13 C20          2.0730     0.0000     1.2030 ca         1 MFP      -0.045400
     14 N2           5.4810     1.9440    -1.7740 nb         1 MFP      -0.724000
     15 N6           3.5160     1.3690    -0.7170 nb         1 MFP      -0.736000
     16 N7           7.5870     1.1950    -1.0130 nh         1 MFP      -0.312700
     17 Br           7.8990    -0.5450    -3.5180 br         1 MFP      -0.106100
     18 N18          7.6310    -2.0760    -0.1060 n1         1 MFP      -0.383800
     19 N19          3.4730    -0.0000     1.2040 nu         1 MFP      -0.301300
     20 C21          1.3810     0.0000     0.0000 ca         1 MFP      -0.075000
     21 C23         -0.6950     0.0010     1.2000 ca         1 MFP       0.125100
     22 C24         -0.0030     0.0060     2.4020 ca         1 MFP      -0.167000
     23 C25          1.3780     0.0010     2.4040 ca         1 MFP      -0.075000
     24 O26         -2.0550     0.0020     1.1990 os         1 MFP      -0.278900
     25 C27         -2.4690     0.0020     2.5670 c3         1 MFP       0.145400
     26 C28         -3.9970     0.0020     2.6360 c3         1 MFP       0.178100
     27 C29         -4.4420     0.0030     4.1000 c3         1 MFP       0.130800
     28 N30         -5.9090    -0.0250     4.1670 n3         1 MFP      -0.505600
     29 C31         -6.3200    -1.3970     3.8510 c3         1 MFP       0.164600
     30 C32         -6.2720     0.2130     5.5710 c3         1 MFP       0.164600
     31 O33         -4.5040     1.1690     1.9850 oh         1 MFP      -0.565800
     32 H22         -0.5420    -0.0000    -0.9380 ha         1 MFP       0.123500
     33 H1           3.5950     2.5700    -2.3910 h5         1 MFP      -0.004900
     34 H4           6.1020    -0.0050     0.8650 ha         1 MFP       0.140000
     35 H10          9.2660     1.4270    -5.2360 ha         1 MFP       0.122000
     36 H12          9.5990     4.8860    -2.7510 ha         1 MFP       0.111000
     37 H161         8.8700     1.1030     0.6360 h1         1 MFP       0.066200
     38 H162         9.1110    -0.1680    -0.5710 h1         1 MFP       0.066200
     39 H13          8.4640     3.6880    -0.9230 ha         1 MFP       0.112000
     40 H151        11.2250     3.6390    -5.2840 hc         1 MFP       0.011367
     41 H152         9.6910     3.7570    -6.1570 hc         1 MFP       0.011367
     42 H153        10.1640     5.0300    -5.0240 hc         1 MFP       0.011367
     43 H19          3.9230    -0.7200     1.7340 hn         1 MFP       0.284800
     44 H21          1.9220    -0.0000    -0.9380 ha         1 MFP       0.124000
     45 H24         -0.5470     0.0070     3.3390 ha         1 MFP       0.123500
     46 H25          1.8660     0.3350     3.3120 ha         1 MFP       0.124000
     47 H271        -2.2260    -0.9530     3.0180 h1         1 MFP       0.018200
     48 H272        -1.9560     0.7930     3.1000 h1         1 MFP       0.018200
     49 H28         -4.3810    -0.8820     2.1420 h1         1 MFP       0.013700
     50 H291        -4.1140    -0.9120     4.5770 h1         1 MFP       0.018200
     51 H292        -4.0040     0.8530     4.6100 h1         1 MFP       0.018200
     52 H311        -5.9600    -2.0680     4.6220 h1         1 MFP       0.003533
     53 H312        -7.4020    -1.4480     3.8050 h1         1 MFP       0.003533
     54 H313        -5.9040    -1.6890     2.8950 h1         1 MFP       0.003533
     55 H321        -7.3290     0.0190     5.7080 h1         1 MFP       0.003533
     56 H322        -5.6980    -0.4480     6.2090 h1         1 MFP       0.003533
     57 H323        -6.0570     1.2420     5.8300 h1         1 MFP       0.003533
     58 H33         -4.7650     0.9500     1.1050 ho         1 MFP       0.393000
     59 C15         10.1940     3.9650    -5.2210 c3         1 MFP       0.061200
     60 C17          7.9580    -0.9870    -0.0900 c1         1 MFP       0.205700
@<TRIPOS>BOND
     1     1    20 ar  
     2     1    21 ar  
     3     1    32 1   
     4     2    14 ar  
     5     2    15 ar  
     6     2    33 1   
     7     3     4 ar  
     8     3    15 ar  
     9     3    19 1   
    10     4     5 ar  
    11     4    34 1   
    12     5    14 ar  
    13     5    16 1   
    14     6     7 ar  
    15     6    10 ar  
    16     6    59 1   
    17     7     8 ar  
    18     7    35 1   
    19     8     9 ar  
    20     8    17 1   
    21     9    12 ar  
    22     9    16 1   
    23    10    12 ar  
    24    10    36 1   
    25    11    16 1   
    26    11    37 1   
    27    11    38 1   
    28    11    60 1   
    29    12    39 1   
    30    13    19 1   
    31    13    20 ar  
    32    13    23 ar  
    33    18    60 3   
    34    19    43 1   
    35    20    44 1   
    36    21    22 ar  
    37    21    24 1   
    38    22    23 ar  
    39    22    45 1   
    40    23    46 1   
    41    24    25 1   
    42    25    26 1   
    43    25    47 1   
    44    25    48 1   
    45    26    27 1   
    46    26    31 1   
    47    26    49 1   
    48    27    28 1   
    49    27    50 1   
    50    27    51 1   
    51    28    29 1   
    52    28    30 1   
    53    29    52 1   
    54    29    53 1   
    55    29    54 1   
    56    30    55 1   
    57    30    56 1   
    58    30    57 1   
    59    31    58 1   
    60    40    59 1   
    61    41    59 1   
    62    42    59 1   
@<TRIPOS>SUBSTRUCTURE
     1 MFP         1 TEMP              0 ****  ****    0 ROOT
