@<TRIPOS>MOLECULE
molecule
   60    62     1     0     0
SMALL
bcc


@<TRIPOS>ATOM
      1 C22          0.0000     0.0000     0.0000 ca         1 MFP      -0.178500
      2 C1           4.1690     1.9990    -1.6720 ca         1 MFP       0.750900
      3 C5           4.1670     0.6560     0.1990 ca         1 MFP       0.744200
      4 C4           5.5550     0.5710     0.1280 ca         1 MFP      -0.494600
      5 C3           6.2050     1.2460    -0.8990 ca         1 MFP       0.760200
      6 C11          9.5010     3.2290    -4.1040 ca         1 MFP      -0.073300
      7 C10          9.0910     1.9210    -4.2880 ca         1 MFP      -0.101000
      8 C9           8.4610     1.2410    -3.2630 ca         1 MFP      -0.009900
      9 C8           8.2300     1.8770    -2.0500 ca         1 MFP       0.165600
     10 C12          9.2770     3.8610    -2.8940 ca         1 MFP      -0.115000
     11 C16          8.3720     0.4250    -0.0460 c3         1 MFP       0.242900
     12 C13          8.6440     3.1900    -1.8680 ca         1 MFP      -0.110000
     13 C20          2.0730     0.0000     1.2030 ca         1 MFP       0.108600
     14 N2           5.4810     1.9440    -1.7740 nb         1 MFP      -0.820000
     15 N6           3.5160     1.3690    -0.7170 nb         1 MFP      -0.831000
     16 N7           7.5870     1.1950    -1.0130 nh         1 MFP      -0.701700
     17 Br           7.8990    -0.5450    -3.5180 br         1 MFP      -0.078100
     18 N18          7.6310    -2.0760    -0.1060 n1         1 MFP      -0.360800
     19 N19          3.4730    -0.0000     1.2040 nu         1 MFP      -0.754300
     20 C21          1.3810     0.0000     0.0000 ca         1 MFP      -0.106000
     21 C23         -0.6950     0.0010     1.2000 ca         1 MFP       0.107100
     22 C24         -0.0030     0.0060     2.4020 ca         1 MFP      -0.178500
     23 C25          1.3780     0.0010     2.4040 ca         1 MFP      -0.106000
     24 O26         -2.0550     0.0020     1.1990 os         1 MFP      -0.298900
     25 C27         -2.4690     0.0020     2.5670 c3         1 MFP       0.091400
     26 C28         -3.9970     0.0020     2.6360 c3         1 MFP       0.151100
     27 C29         -4.4420     0.0030     4.1000 c3         1 MFP       0.135800
     28 N30         -5.9090    -0.0250     4.1670 n3         1 MFP      -0.658600
     29 C31         -6.3200    -1.3970     3.8510 c3         1 MFP       0.121600
     30 C32         -6.2720     0.2130     5.5710 c3         1 MFP       0.121600
     31 O33         -4.5040     1.1690     1.9850 oh         1 MFP      -0.582800
     32 H22         -0.5420    -0.0000    -0.9380 ha         1 MFP       0.143500
     33 H1           3.5950     2.5700    -2.3910 h5         1 MFP       0.060100
     34 H4           6.1020    -0.0050     0.8650 ha         1 MFP       0.147000
     35 H10          9.2660     1.4270    -5.2360 ha         1 MFP       0.148000
     36 H12          9.5990     4.8860    -2.7510 ha         1 MFP       0.138000
     37 H161         8.8700     1.1030     0.6360 h1         1 MFP       0.106200
     38 H162         9.1110    -0.1680    -0.5710 h1         1 MFP       0.106200
     39 H13          8.4640     3.6880    -0.9230 ha         1 MFP       0.144000
     40 H151        11.2250     3.6390    -5.2840 hc         1 MFP       0.047700
     41 H152         9.6910     3.7570    -6.1570 hc         1 MFP       0.047700
     42 H153        10.1640     5.0300    -5.0240 hc         1 MFP       0.047700
     43 H19          3.9230    -0.7200     1.7340 hn         1 MFP       0.451800
     44 H21          1.9220    -0.0000    -0.9380 ha         1 MFP       0.151500
     45 H24         -0.5470     0.0070     3.3390 ha         1 MFP       0.143500
     46 H25          1.8660     0.3350     3.3120 ha         1 MFP       0.151500
     47 H271        -2.2260    -0.9530     3.0180 h1         1 MFP       0.047200
     48 H272        -1.9560     0.7930     3.1000 h1         1 MFP       0.047200
     49 H28         -4.3810    -0.8820     2.1420 h1         1 MFP       0.043700
     50 H291        -4.1140    -0.9120     4.5770 h1         1 MFP       0.043700
     51 H292        -4.0040     0.8530     4.6100 h1         1 MFP       0.043700
     52 H311        -5.9600    -2.0680     4.6220 h1         1 MFP       0.035200
     53 H312        -7.4020    -1.4480     3.8050 h1         1 MFP       0.035200
     54 H313        -5.9040    -1.6890     2.8950 h1         1 MFP       0.035200
     55 H321        -7.3290     0.0190     5.7080 h1         1 MFP       0.035200
     56 H322        -5.6980    -0.4480     6.2090 h1         1 MFP       0.035200
     57 H323        -6.0570     1.2420     5.8300 h1         1 MFP       0.035200
     58 H33         -4.7650     0.9500     1.1050 ho         1 MFP       0.408000
     59 C15         10.1940     3.9650    -5.2210 c3         1 MFP      -0.048800
     60 C17          7.9580    -0.9870    -0.0900 c1         1 MFP       0.224700
@<TRIPOS>BOND
     1     1    20 ar
     2     1    21 ar
     3     1    32 1
     4     2    14 ar
     5     2    15 ar
     6     2    33 1
     7     3     4 ar
     8     3    15 ar
     9     3    19 1
    10     4     5 ar
    11     4    34 1
    12     5    14 ar
    13     5    16 1
    14     6     7 ar
    15     6    10 ar
    16     6    59 1
    17     7     8 ar
    18     7    35 1
    19     8     9 ar
    20     8    17 1
    21     9    12 ar
    22     9    16 1
    23    10    12 ar
    24    10    36 1
    25    60    11 1
    26    60    18 3
    27    11    16 1
    28    11    37 1
    29    11    38 1
    30    12    39 1
    31    59    40 1
    32    59    41 1
    33    59    42 1
    34    13    19 1
    35    13    20 ar
    36    13    23 ar
    37    19    43 1
    38    20    44 1
    39    21    22 ar
    40    21    24 1
    41    22    23 ar
    42    22    45 1
    43    23    46 1
    44    24    25 1
    45    25    26 1
    46    25    47 1
    47    25    48 1
    48    26    27 1
    49    26    31 1
    50    26    49 1
    51    27    28 1
    52    27    50 1
    53    27    51 1
    54    28    29 1
    55    28    30 1
    56    29    52 1
    57    29    53 1
    58    29    54 1
    59    30    55 1
    60    30    56 1
    61    30    57 1
    62    31    58 1
@<TRIPOS>SUBSTRUCTURE
     1 MFP         1 TEMP              0 ****  ****    0 ROOT
