@<TRIPOS>MOLECULE
MFQ
   60    62     1     0     0
SMALL
bcc


@<TRIPOS>ATOM
      1 C22          0.0000     0.0000     0.0000 ca         1 MFQ      -0.162000
      2 C1           4.1710     1.9970    -1.6730 ca         1 MFQ       0.710900
      3 C5           4.1680     0.6510     0.1960 ca         1 MFQ       0.564200
      4 C4           5.5560     0.5580     0.1190 ca         1 MFQ      -0.506600
      5 C3           6.2050     1.2300    -0.9100 ca         1 MFQ       0.587200
      6 C11          9.5000     3.1940    -4.1270 ca         1 MFQ      -0.068300
      7 C10          9.0800     1.8900    -4.3110 ca         1 MFQ      -0.083000
      8 C9           8.4500     1.2130    -3.2840 ca         1 MFQ       0.046100
      9 C8           8.2280     1.8480    -2.0690 ca         1 MFQ       0.016600
     10 C12          9.2860     3.8270    -2.9170 ca         1 MFQ      -0.095000
     11 C16          8.3710     0.3920    -0.0680 c3         1 MFQ       0.311900
     12 C13          8.6520     3.1590    -1.8880 ca         1 MFQ      -0.074000
     13 C20          2.0750     0.0000     1.2030 ca         1 MFQ      -0.041400
     14 N2           5.4820     1.9330    -1.7810 nb         1 MFQ      -0.722000
     15 N6           3.5190     1.3710    -0.7150 nb         1 MFQ      -0.735000
     16 N7           7.5860     1.1700    -1.0300 nh         1 MFQ      -0.314700
     17 Br           7.8760    -0.5700    -3.5380 br         1 MFQ      -0.103100
     18 N18          7.6030    -2.0980    -0.1530 n1         1 MFQ      -0.359800
     19 N19          3.4750    -0.0000     1.2040 nu         1 MFQ      -0.287300
     20 C21          1.3820     0.0000     0.0000 ca         1 MFQ      -0.079000
     21 C23         -0.6940     0.0010     1.2010 ca         1 MFQ       0.120100
     22 C24         -0.0020     0.0070     2.4020 ca         1 MFQ      -0.162000
     23 C25          1.3790     0.0010     2.4040 ca         1 MFQ      -0.079000
     24 O26         -2.0540     0.0020     1.2000 os         1 MFQ      -0.277900
     25 C27         -2.4680     0.0030     2.5680 c3         1 MFQ       0.150400
     26 C28         -3.9950     0.0040     2.6380 c3         1 MFQ       0.173100
     27 C29         -4.4400     0.0040     4.1010 c3         1 MFQ       0.125800
     28 N30         -5.9070     0.0060     4.1690 n3         1 MFQ      -0.505600
     29 C31         -6.2640     0.0070     5.5930 c3         1 MFQ       0.164100
     30 C32         -6.3540     1.2930     3.6210 c3         1 MFQ       0.164100
     31 O33         -4.5040    -1.1620     1.9860 oh         1 MFQ      -0.564800
     32 H22         -0.5420    -0.0000    -0.9380 ha         1 MFQ       0.123000
     33 H1L          3.5970     2.5730    -2.3890 h5         1 MFQ      -0.004900
     34 H4           6.1020    -0.0230     0.8520 ha         1 MFQ       0.139000
     35 H10          9.2480     1.3960    -5.2610 ha         1 MFQ       0.123000
     36 H12          9.6160     4.8490    -2.7740 ha         1 MFQ       0.111000
     37 H161         9.4260     0.5120    -0.2820 h1         1 MFQ       0.038700
     38 H162         8.1640     0.7450     0.9350 h1         1 MFQ       0.038700
     39 H13          8.4800     3.6570    -0.9420 ha         1 MFQ       0.111000
     40 H151        10.8740     4.6600    -4.8300 hc         1 MFQ       0.011367
     41 H152        10.7480     3.2210    -5.8510 hc         1 MFQ       0.011367
     42 H153         9.4550     4.4280    -5.8610 hc         1 MFQ       0.011367
     43 H19          3.9680    -0.3740     1.9900 hn         1 MFQ       0.284800
     44 H21          1.9230    -0.0010    -0.9380 ha         1 MFQ       0.120000
     45 H24         -0.5450     0.0080     3.3400 ha         1 MFQ       0.123000
     46 H25          1.9140    -0.1060     3.3400 ha         1 MFQ       0.120000
     47 H271        -2.0110    -0.8320     3.0840 h1         1 MFQ       0.017700
     48 H272        -2.1610     0.9300     3.0370 h1         1 MFQ       0.017700
     49 H28         -4.3790     0.8890     2.1440 h1         1 MFQ       0.013700
     50 H291        -4.0750    -0.8910     4.5900 h1         1 MFQ       0.019700
     51 H292        -4.0380     0.8780     4.6000 h1         1 MFQ       0.019700
     52 H311        -5.9460    -0.9240     6.0460 h1         1 MFQ       0.003533
     53 H312        -5.7740     0.8360     6.0880 h1         1 MFQ       0.003533
     54 H313        -7.3380     0.1090     5.6950 h1         1 MFQ       0.003533
     55 H321        -5.7970     2.0970     4.0880 h1         1 MFQ       0.003533
     56 H322        -6.1830     1.3090     2.5520 h1         1 MFQ       0.003533
     57 H323        -7.4100     1.4230     3.8200 h1         1 MFQ       0.003533
     58 H33         -4.8500    -0.9240     1.1420 ho         1 MFQ       0.392000
     59 C15         10.1930     3.9270    -5.2460 c3         1 MFQ       0.061200
     60 C17          7.9470    -1.0170    -0.1130 c1         1 MFQ       0.160700
@<TRIPOS>BOND
     1     1    20 ar  
     2     1    21 ar  
     3     1    32 1   
     4     2    14 ar  
     5     2    15 ar  
     6     2    33 1   
     7     3     4 ar  
     8     3    15 ar  
     9     3    19 1   
    10     4     5 ar  
    11     4    34 1   
    12     5    14 ar  
    13     5    16 1   
    14     6     7 ar  
    15     6    10 ar  
    16     6    59 1   
    17     7     8 ar  
    18     7    35 1   
    19     8     9 ar  
    20     8    17 1   
    21     9    12 ar  
    22     9    16 1   
    23    10    12 ar  
    24    10    36 1   
    25    11    16 1   
    26    11    37 1   
    27    11    38 1   
    28    11    60 1   
    29    12    39 1   
    30    13    19 1   
    31    13    20 ar  
    32    13    23 ar  
    33    18    60 3   
    34    19    43 1   
    35    20    44 1   
    36    21    22 ar  
    37    21    24 1   
    38    22    23 ar  
    39    22    45 1   
    40    23    46 1   
    41    24    25 1   
    42    25    26 1   
    43    25    47 1   
    44    25    48 1   
    45    26    27 1   
    46    26    31 1   
    47    26    49 1   
    48    27    28 1   
    49    27    50 1   
    50    27    51 1   
    51    28    29 1   
    52    28    30 1   
    53    29    52 1   
    54    29    53 1   
    55    29    54 1   
    56    30    55 1   
    57    30    56 1   
    58    30    57 1   
    59    31    58 1   
    60    40    59 1   
    61    41    59 1   
    62    42    59 1   
@<TRIPOS>SUBSTRUCTURE
     1 MFQ         1 TEMP              0 ****  ****    0 ROOT
