@<TRIPOS>MOLECULE
MFR
   29    31     1     0     0
SMALL
bcc


@<TRIPOS>ATOM
      1 C2           0.0000     0.0000     0.0000 ca         1 MFR      -0.381300
      2 C3           1.3830     0.0000     0.0000 ca         1 MFR       0.467200
      3 C1          -0.6800     0.0000     1.2120 ca         1 MFR       0.246100
      4 C11         -1.6050     0.0020     4.4200 ca         1 MFR       0.528100
      5 C12         -3.8980     0.0120     4.1770 ca         1 MFR       0.711900
      6 N7          -4.0810     0.0130     5.4890 nb         1 MFR      -0.646000
      7 C13         -3.0520     0.0090     6.3220 ca         1 MFR       0.447200
      8 C14         -1.7680     0.0040     5.8100 ca         1 MFR      -0.361600
      9 N5          -2.6870     0.0060     3.6430 nb         1 MFR      -0.600000
     10 C9          -0.2520     0.0030     3.8230 cc         1 MFR      -0.199000
     11 C8           0.9310     0.0040     4.4900 cd         1 MFR      -0.259100
     12 N2           1.9620     0.0020     3.5980 na         1 MFR       0.279900
     13 C10          0.0780     0.0010     2.3890 ca         1 MFR      -0.222100
     14 O1          -2.0370     0.0010     1.2540 os         1 MFR      -0.250900
     15 C15         -2.7240    -0.0000     0.0020 c3         1 MFR       0.228700
     16 C4           1.4800     0.0020     2.3100 ca         1 MFR       0.255800
     17 N1           2.0730     0.0000     1.1220 nb         1 MFR      -0.624000
     18 H2          -0.5470     0.0000    -0.9350 ha         1 MFR       0.131000
     19 H3           1.9110    -0.0000    -0.9460 h4         1 MFR      -0.024900
     20 HN6         -5.4110     0.8840     3.0560 hn         1 MFR       0.277800
     21 HN6A        -5.4190    -0.8490     3.0590 hn         1 MFR       0.277800
     22 H13         -3.2140     0.0100     7.3930 h4         1 MFR      -0.019900
     23 H14         -0.9080     0.0010     6.4690 ha         1 MFR       0.121000
     24 H8           1.0390     0.0050     5.5680 h4         1 MFR       0.146000
     25 HN2          2.9310     0.0030     3.8450 hn         1 MFR       0.118700
     26 H15         -2.4490    -0.8850    -0.5600 h1         1 MFR      -0.002633
     27 H15A        -3.7930    -0.0010     0.1760 h1         1 MFR      -0.002633
     28 H15B        -2.4510     0.8840    -0.5610 h1         1 MFR      -0.002633
     29 N6          -5.0030     0.0160     3.3420 nv         1 MFR      -0.640500
@<TRIPOS>BOND
     1     1     2 ar  
     2     1     3 ar  
     3     1    18 1   
     4     2    17 ar  
     5     2    19 1   
     6     3    13 ar  
     7     3    14 1   
     8     4     8 ar  
     9     4     9 ar  
    10     4    10 1   
    11     5     6 ar  
    12     5     9 ar  
    13     5    29 1   
    14     6     7 ar  
    15     7     8 ar  
    16     7    22 1   
    17     8    23 1   
    18    10    11 2   
    19    10    13 1   
    20    11    12 1   
    21    11    24 1   
    22    12    16 1   
    23    12    25 1   
    24    13    16 ar  
    25    14    15 1   
    26    15    26 1   
    27    15    27 1   
    28    15    28 1   
    29    16    17 ar  
    30    20    29 1   
    31    21    29 1   
@<TRIPOS>SUBSTRUCTURE
     1 MFR         1 TEMP              0 ****  ****    0 ROOT
