@<TRIPOS>MOLECULE
molecule
   29    31     1     0     0
SMALL
bcc


@<TRIPOS>ATOM
      1 C2           0.0000     0.0000     0.0000 ca         1 MFR      -0.393300
      2 C3           1.3830     0.0000     0.0000 ca         1 MFR       0.488200
      3 C1          -0.6800     0.0000     1.2120 ca         1 MFR       0.232100
      4 C11         -1.6050     0.0020     4.4200 ca         1 MFR       0.568100
      5 C12         -3.8980     0.0120     4.1770 ca         1 MFR       0.931900
      6 N7          -4.0810     0.0130     5.4890 nb         1 MFR      -0.761000
      7 C13         -3.0520     0.0090     6.3220 ca         1 MFR       0.466200
      8 C14         -1.7680     0.0040     5.8100 ca         1 MFR      -0.397600
      9 N5          -2.6870     0.0060     3.6430 nb         1 MFR      -0.716000
     10 C9          -0.2520     0.0030     3.8230 cc         1 MFR      -0.202000
     11 C8           0.9310     0.0040     4.4900 cd         1 MFR      -0.080100
     12 N2           1.9620     0.0020     3.5980 na         1 MFR      -0.269100
     13 C10          0.0780     0.0010     2.3890 ca         1 MFR      -0.222100
     14 O1          -2.0370     0.0010     1.2540 os         1 MFR      -0.264900
     15 C15         -2.7240    -0.0000     0.0020 c3         1 MFR       0.120700
     16 C4           1.4800     0.0020     2.3100 ca         1 MFR       0.491800
     17 N1           2.0730     0.0000     1.1220 nb         1 MFR      -0.749000
     18 H2          -0.5470     0.0000    -0.9350 ha         1 MFR       0.143000
     19 H3           1.9110    -0.0000    -0.9460 h4         1 MFR       0.023100
     20 HN6         -5.4110     0.8840     3.0560 hn         1 MFR       0.441800
     21 HN6A        -5.4190    -0.8490     3.0590 hn         1 MFR       0.441800
     22 H13         -3.2140     0.0100     7.3930 h4         1 MFR       0.025100
     23 H14         -0.9080     0.0010     6.4690 ha         1 MFR       0.137000
     24 H8           1.0390     0.0050     5.5680 h4         1 MFR       0.173000
     25 HN2          2.9310     0.0030     3.8450 hn         1 MFR       0.308700
     26 H15         -2.4490    -0.8850    -0.5600 h1         1 MFR       0.040700
     27 H15A        -3.7930    -0.0010     0.1760 h1         1 MFR       0.040700
     28 H15B        -2.4510     0.8840    -0.5610 h1         1 MFR       0.040700
     29 N6          -5.0030     0.0160     3.3420 nv         1 MFR      -1.060500
@<TRIPOS>BOND
     1     1     2 ar
     2     1     3 ar
     3     2    17 ar
     4     3    13 ar
     5     3    14 1
     6     4     8 ar
     7     4     9 ar
     8     4    10 1
     9    29     5 1
    10     5     6 ar
    11     5     9 ar
    12     6     7 ar
    13     7     8 ar
    14    10    11 2
    15    10    13 1
    16    11    12 1
    17    12    16 1
    18    13    16 ar
    19    14    15 1
    20    16    17 ar
    21     1    18 1
    22     2    19 1
    23    29    20 1
    24    29    21 1
    25     7    22 1
    26     8    23 1
    27    11    24 1
    28    12    25 1
    29    15    26 1
    30    15    27 1
    31    15    28 1
@<TRIPOS>SUBSTRUCTURE
     1 MFR         1 TEMP              0 ****  ****    0 ROOT
