@<TRIPOS>MOLECULE
MFW
   14    14     1     0     0
SMALL
bcc


@<TRIPOS>ATOM
      1 C1          0.0560    0.2350   -0.0750 c3        1 MFW     -0.079400
      2 O1          0.7600    0.9730    3.4000 o         1 MFW     -0.529100
      3 C2          1.5170   -0.1920    0.0550 c3        1 MFW     -0.079400
      4 C3          1.9400    0.0190    1.5010 c3        1 MFW     -0.190400
      5 C4          0.7690    0.6420    2.2150 c         1 MFW      0.573100
      6 C5         -0.3890    0.8010    1.2640 c3        1 MFW     -0.190400
      7 H1         -0.0560    1.0000   -0.8830 hc        1 MFW      0.047200
      8 H2         -0.5800   -0.6410   -0.3580 hc        1 MFW      0.047200
      9 H4          1.6380   -1.2650   -0.2370 hc        1 MFW      0.047200
     10 H5          2.1600    0.4140   -0.6310 hc        1 MFW      0.047200
     11 H6          2.8310    0.6920    1.5750 hc        1 MFW      0.076200
     12 H7          2.2070   -0.9500    1.9960 hc        1 MFW      0.076200
     13 H9         -1.2840    0.2610    1.6630 hc        1 MFW      0.076200
     14 H10        -0.6590    1.8850    1.1820 hc        1 MFW      0.076200
@<TRIPOS>BOND
     1    1    3 1   
     2    1    6 1   
     3    1    7 1   
     4    1    8 1   
     5    2    5 2   
     6    3    4 1   
     7    3    9 1   
     8    3   10 1   
     9    4    5 1   
    10    4   11 1   
    11    4   12 1   
    12    5    6 1   
    13    6   13 1   
    14    6   14 1   
@<TRIPOS>SUBSTRUCTURE
     1 MFW         1 TEMP              0 ****  ****    0 ROOT
