@<TRIPOS>MOLECULE
molecule
   14    14     1     0     0
SMALL
bcc


@<TRIPOS>ATOM
      1 C1           0.0000     0.0000     0.0000 c3         1 MFW      -0.082900
      2 O1           0.6350     0.7200     3.4370 o          1 MFW      -0.512100
      3 C2           1.5500     0.0000     0.0000 c3         1 MFW      -0.082900
      4 C3           1.9170     0.0000     1.4980 c3         1 MFW      -0.195900
      5 C4           0.7260     0.5690     2.2410 c          1 MFW       0.576100
      6 C5          -0.3310     0.9110     1.2080 c3         1 MFW      -0.195900
      7 H1          -0.3830    -1.0010     0.1580 hc         1 MFW       0.050950
      8 H2          -0.3830     0.4270    -0.9190 hc         1 MFW       0.050950
      9 H4           1.9290     0.8930    -0.4830 hc         1 MFW       0.050950
     10 H5           1.9290    -0.8930    -0.4830 hc         1 MFW       0.050950
     11 H6           2.7880     0.6230     1.6650 hc         1 MFW       0.072200
     12 H7           2.1100    -1.0130     1.8310 hc         1 MFW       0.072200
     13 H9          -0.2570     1.9540     0.9240 hc         1 MFW       0.072200
     14 H10         -1.3190     0.6850     1.5900 hc         1 MFW       0.072200
@<TRIPOS>BOND
     1     6     1 1
     2     6     5 1
     3     2     5 2
     4     1     3 1
     5     5     4 1
     6     4     3 1
     7     1     7 1
     8     1     8 1
     9     3     9 1
    10     3    10 1
    11     4    11 1
    12     4    12 1
    13     6    13 1
    14     6    14 1
@<TRIPOS>SUBSTRUCTURE
     1 MFW         1 TEMP              0 ****  ****    0 ROOT
