@<TRIPOS>MOLECULE
MFX
   52    56     1     0     0
SMALL
bcc


@<TRIPOS>ATOM
      1 F            0.0000     0.0000     0.0000 f          1 MFX      -0.207900
      2 O02          3.0380     0.0270    -3.1730 o          1 MFX      -0.519100
      3 O03          5.0650     0.0500    -4.7980 o          1 MFX      -0.873800
      4 O            7.0610     0.0450    -3.8210 o          1 MFX      -0.873800
      5 N01          1.8130    -0.0150     3.0750 nh         1 MFX      -0.387000
      6 N02          0.5490    -0.6670     5.6470 n7         1 MFX      -0.560200
      7 N            5.5200     0.0000     0.0000 na         1 MFX       0.020200
      8 C01         -0.3950     0.6660     3.7820 c3         1 MFX      -0.063700
      9 C02         -0.1010    -0.7420     4.3320 c3         1 MFX       0.114500
     10 C03          0.9820     1.1800     3.3360 c3         1 MFX       0.152800
     11 C04          0.9920    -1.2200     3.3300 c3         1 MFX       0.147800
     12 C05         -1.0550     1.5740     4.7940 c3         1 MFX      -0.012400
     13 C06          6.4350    -0.0090     1.1450 cx         1 MFX      -0.018500
     14 C07         -0.2940     1.5660     6.1200 c3         1 MFX      -0.031400
     15 C08          7.2860    -1.2620     1.3580 cx         1 MFX      -0.098900
     16 C09          7.9360     0.0260     0.8500 cx         1 MFX      -0.098900
     17 C10         -0.2190     0.1180     6.6170 c3         1 MFX       0.148800
     18 C11          2.3020    -0.0090     1.7680 ca         1 MFX       0.077600
     19 C12          4.1600     0.0000     0.2400 ca         1 MFX       0.016600
     20 C13          3.6720    -0.0100     1.5450 ca         1 MFX       0.060100
     21 C14          3.2500     0.0090    -0.8320 ca         1 MFX      -0.209600
     22 C15          1.4100     0.0000     0.6950 ca         1 MFX      -0.008100
     23 C16          6.0370     0.0150    -1.2350 cc         1 MFX      -0.142000
     24 C17          1.8740     0.0090    -0.5900 ca         1 MFX      -0.053000
     25 C18          5.2440     0.0250    -2.3640 cd         1 MFX      -0.224400
     26 C19          3.7800     0.0190    -2.2060 c          1 MFX       0.608900
     27 C20          5.8500     0.0400    -3.7020 c          1 MFX       0.981800
     28 C            4.9460    -1.2900     3.0940 c3         1 MFX       0.222700
     29 H01         -1.0370     0.5800     2.9140 hc         1 MFX       0.035700
     30 H02         -0.9740    -1.3830     4.3290 h1         1 MFX       0.015700
     31 H03          1.4270     1.7760     4.1230 h1         1 MFX       0.029200
     32 H03A         0.8820     1.7660     2.4300 h1         1 MFX       0.029200
     33 H04          1.5970    -2.0000     3.7770 h1         1 MFX       0.021700
     34 H04A         0.5350    -1.5670     2.4110 h1         1 MFX       0.021700
     35 H05         -2.0690     1.2340     4.9660 hc         1 MFX       0.011700
     36 H05A        -1.0760     2.5840     4.4030 hc         1 MFX       0.011700
     37 H06          6.1400     0.5000     2.0540 h1         1 MFX       0.125700
     38 H07         -0.8200     2.1740     6.8460 hc         1 MFX       0.022700
     39 H07A         0.7070     1.9520     5.9680 hc         1 MFX       0.022700
     40 HN02         0.6900    -1.5910     6.0030 hn         1 MFX       0.246800
     41 H08          7.1590    -2.0440     0.6200 hc         1 MFX       0.056700
     42 H08A         7.4950    -1.5140     2.3910 hc         1 MFX       0.056700
     43 H09          8.5420     0.5600     1.5720 hc         1 MFX       0.056700
     44 H09A         8.2060     0.0300    -0.1990 hc         1 MFX       0.056700
     45 H10          0.2750     0.0890     7.5800 h1         1 MFX      -0.000300
     46 H10A        -1.2200    -0.2880     6.7020 h1         1 MFX      -0.000300
     47 H16          7.1140     0.0190    -1.3520 h4         1 MFX       0.165000
     48 H17          1.1780     0.0880    -1.4170 ha         1 MFX       0.163000
     49 H            5.9280    -1.2030     3.5440 h1         1 MFX      -0.002300
     50 HA           4.2370    -1.6330     3.8380 h1         1 MFX      -0.002300
     51 HB           4.9850    -2.0000     2.2770 h1         1 MFX      -0.002300
     52 O01          4.5350    -0.0150     2.5970 os         1 MFX      -0.309900
@<TRIPOS>BOND
     1     1    22 1   
     2     2    26 2   
     3     3    27 1   
     4     4    27 1   
     5     5    10 1   
     6     5    11 1   
     7     5    18 1   
     8     6     9 1   
     9     6    17 1   
    10     6    40 1   
    11     7    13 1   
    12     7    19 1   
    13     7    23 1   
    14     8     9 1   
    15     8    10 1   
    16     8    12 1   
    17     8    29 1   
    18     9    11 1   
    19     9    30 1   
    20    10    31 1   
    21    10    32 1   
    22    11    33 1   
    23    11    34 1   
    24    12    14 1   
    25    12    35 1   
    26    12    36 1   
    27    13    15 1   
    28    13    16 1   
    29    13    37 1   
    30    14    17 1   
    31    14    38 1   
    32    14    39 1   
    33    15    16 1   
    34    15    41 1   
    35    15    42 1   
    36    16    43 1   
    37    16    44 1   
    38    17    45 1   
    39    17    46 1   
    40    18    20 ar  
    41    18    22 ar  
    42    19    20 ar  
    43    19    21 ar  
    44    20    52 1   
    45    21    24 ar  
    46    21    26 1   
    47    22    24 ar  
    48    23    25 2   
    49    23    47 1   
    50    24    48 1   
    51    25    26 1   
    52    25    27 1   
    53    28    49 1   
    54    28    50 1   
    55    28    51 1   
    56    28    52 1   
@<TRIPOS>SUBSTRUCTURE
     1 MFX         1 TEMP              0 ****  ****    0 ROOT
