@<TRIPOS>MOLECULE
molecule
   52    56     1     0     0
SMALL
bcc


@<TRIPOS>ATOM
      1 F            0.0000     0.0000     0.0000 f          1 MFX      -0.195900
      2 O02          3.0380     0.0270    -3.1730 o          1 MFX      -0.495100
      3 O03          5.0650     0.0500    -4.7980 o          1 MFX      -0.826800
      4 O            7.0610     0.0450    -3.8210 o          1 MFX      -0.826800
      5 N01          1.8130    -0.0150     3.0750 nh         1 MFX      -0.587000
      6 N02          0.5490    -0.6670     5.6470 n7         1 MFX      -0.802200
      7 N            5.5200     0.0000     0.0000 na         1 MFX      -0.469800
      8 C01         -0.3950     0.6660     3.7820 c3         1 MFX      -0.087700
      9 C02         -0.1010    -0.7420     4.3320 c3         1 MFX       0.157500
     10 C03          0.9820     1.1800     3.3360 c3         1 MFX       0.177800
     11 C04          0.9920    -1.2200     3.3300 c3         1 MFX       0.166800
     12 C05         -1.0550     1.5740     4.7940 c3         1 MFX      -0.069400
     13 C06          6.4350    -0.0090     1.1450 cx         1 MFX       0.141500
     14 C07         -0.2940     1.5660     6.1200 c3         1 MFX      -0.079400
     15 C08          7.2860    -1.2620     1.3580 cx         1 MFX      -0.160400
     16 C09          7.9360     0.0260     0.8500 cx         1 MFX      -0.160400
     17 C10         -0.2190     0.1180     6.6170 c3         1 MFX       0.161800
     18 C11          2.3020    -0.0090     1.7680 ca         1 MFX       0.142600
     19 C12          4.1600     0.0000     0.2400 ca         1 MFX       0.187600
     20 C13          3.6720    -0.0100     1.5450 ca         1 MFX       0.059100
     21 C14          3.2500     0.0090    -0.8320 ca         1 MFX      -0.218600
     22 C15          1.4100     0.0000     0.6950 ca         1 MFX      -0.039100
     23 C16          6.0370     0.0150    -1.2350 cc         1 MFX       0.043000
     24 C17          1.8740     0.0090    -0.5900 ca         1 MFX      -0.052000
     25 C18          5.2440     0.0250    -2.3640 cd         1 MFX      -0.251400
     26 C19          3.7800     0.0190    -2.2060 c          1 MFX       0.567900
     27 C20          5.8500     0.0400    -3.7020 c          1 MFX       0.894800
     28 C            4.9460    -1.2900     3.0940 c3         1 MFX       0.126700
     29 H01         -1.0370     0.5800     2.9140 hc         1 MFX       0.060700
     30 H02         -0.9740    -1.3830     4.3290 h1         1 MFX       0.034700
     31 H03          1.4270     1.7760     4.1230 h1         1 MFX       0.057200
     32 H03A         0.8820     1.7660     2.4300 h1         1 MFX       0.057200
     33 H04          1.5970    -2.0000     3.7770 h1         1 MFX       0.050700
     34 H04A         0.5350    -1.5670     2.4110 h1         1 MFX       0.050700
     35 H05         -2.0690     1.2340     4.9660 hc         1 MFX       0.039200
     36 H05A        -1.0760     2.5840     4.4030 hc         1 MFX       0.039200
     37 H06          6.1400     0.5000     2.0540 h1         1 MFX       0.140700
     38 H07         -0.8200     2.1740     6.8460 hc         1 MFX       0.049700
     39 H07A         0.7070     1.9520     5.9680 hc         1 MFX       0.049700
     40 HN02         0.6900    -1.5910     6.0030 hn         1 MFX       0.348800
     41 H08          7.1590    -2.0440     0.6200 hc         1 MFX       0.082200
     42 H08A         7.4950    -1.5140     2.3910 hc         1 MFX       0.082200
     43 H09          8.5420     0.5600     1.5720 hc         1 MFX       0.082200
     44 H09A         8.2060     0.0300    -0.1990 hc         1 MFX       0.082200
     45 H10          0.2750     0.0890     7.5800 h1         1 MFX       0.024700
     46 H10A        -1.2200    -0.2880     6.7020 h1         1 MFX       0.024700
     47 H16          7.1140     0.0190    -1.3520 h4         1 MFX       0.181000
     48 H17          1.1780     0.0880    -1.4170 ha         1 MFX       0.187000
     49 H            5.9280    -1.2030     3.5440 h1         1 MFX       0.034367
     50 HA           4.2370    -1.6330     3.8380 h1         1 MFX       0.034367
     51 HB           4.9850    -2.0000     2.2770 h1         1 MFX       0.034367
     52 O01          4.5350    -0.0150     2.5970 os         1 MFX      -0.328900
@<TRIPOS>BOND
     1     1    22 1
     2    52    20 1
     3    52    28 1
     4     2    26 2
     5     3    27 1
     6     4    27 1
     7     5    10 1
     8     5    11 1
     9     5    18 1
    10     6     9 1
    11     6    17 1
    12     6    40 1
    13     7    13 1
    14     7    19 1
    15     7    23 1
    16     8     9 1
    17     8    10 1
    18     8    12 1
    19     8    29 1
    20     9    11 1
    21     9    30 1
    22    10    31 1
    23    10    32 1
    24    11    33 1
    25    11    34 1
    26    12    14 1
    27    12    35 1
    28    12    36 1
    29    13    15 1
    30    13    16 1
    31    13    37 1
    32    14    17 1
    33    14    38 1
    34    14    39 1
    35    15    16 1
    36    15    41 1
    37    15    42 1
    38    16    43 1
    39    16    44 1
    40    17    45 1
    41    17    46 1
    42    18    20 ar
    43    18    22 ar
    44    19    20 ar
    45    19    21 ar
    46    21    24 ar
    47    21    26 1
    48    22    24 ar
    49    23    25 2
    50    23    47 1
    51    24    48 1
    52    25    26 1
    53    25    27 1
    54    28    49 1
    55    28    50 1
    56    28    51 1
@<TRIPOS>SUBSTRUCTURE
     1 MFX         1 TEMP              0 ****  ****    0 ROOT
