@<TRIPOS>MOLECULE
MFY
   26    26     1     0     0
SMALL
bcc


@<TRIPOS>ATOM
      1 CAG          0.0000     0.0000     0.0000 ca         1 MFY      -0.078500
      2 CAE          1.3820     0.0000     0.0000 ca         1 MFY      -0.105500
      3 CAM          2.0740     0.0000     1.1980 ca         1 MFY      -0.035600
      4 Cl           3.8100     0.0020     1.1980 cl         1 MFY      -0.056400
      5 CAF          1.3820    -0.0010     2.3960 ca         1 MFY      -0.105500
      6 CAH         -0.0000    -0.0010     2.3950 ca         1 MFY      -0.078500
      7 CAN         -0.6910    -0.0020     1.1980 ca         1 MFY      -0.074300
      8 CAK         -2.1980     0.0030     1.1970 c3         1 MFY       0.197100
      9 NAL         -2.6920    -1.3800     1.1940 n7         1 MFY      -0.595200
     10 CAI         -4.1610    -1.4150     1.1940 c3         1 MFY       0.174800
     11 CAJ         -4.6370    -2.8690     1.1900 c3         1 MFY      -0.056600
     12 SAO         -6.4500    -2.9110     1.1900 s6         1 MFY       0.958800
     13 OAC         -6.9600    -2.4300    -0.0460 o          1 MFY      -0.659867
     14 OAB         -6.7950    -4.3930     1.1850 o          1 MFY      -0.659867
     15 OAA         -6.9610    -2.4360     2.4270 o          1 MFY      -0.659867
     16 H1          -0.5420    -0.0000    -0.9380 ha         1 MFY       0.112000
     17 H2           1.9230     0.0020    -0.9380 ha         1 MFY       0.108500
     18 H3           1.9230    -0.0010     3.3350 ha         1 MFY       0.108500
     19 H4          -0.5420    -0.0030     3.3330 ha         1 MFY       0.112000
     20 H5          -2.5580     0.5130     2.0830 h1         1 MFY       0.008200
     21 H6          -2.5570     0.5170     0.3140 h1         1 MFY       0.008200
     22 H7          -2.3470    -1.8590     2.0010 hn         1 MFY       0.251800
     23 H9          -4.5340    -0.9150     2.0790 h1         1 MFY       0.010700
     24 H10         -4.5340    -0.9100     0.3100 h1         1 MFY       0.010700
     25 H11         -4.2640    -3.3730     2.0730 h1         1 MFY       0.052700
     26 H12         -4.2640    -3.3690     0.3040 h1         1 MFY       0.052700
@<TRIPOS>BOND
     1     1     2 ar  
     2     1     7 ar  
     3     1    16 1   
     4     2     3 ar  
     5     2    17 1   
     6     3     4 1   
     7     3     5 ar  
     8     5     6 ar  
     9     5    18 1   
    10     6     7 ar  
    11     6    19 1   
    12     7     8 1   
    13     8     9 1   
    14     8    20 1   
    15     8    21 1   
    16     9    10 1   
    17     9    22 1   
    18    10    11 1   
    19    10    23 1   
    20    10    24 1   
    21    11    12 1   
    22    11    25 1   
    23    11    26 1   
    24    12    13 1   
    25    12    14 1   
    26    12    15 1   
@<TRIPOS>SUBSTRUCTURE
     1 MFY         1 TEMP              0 ****  ****    0 ROOT
