@<TRIPOS>MOLECULE
molecule
   26    26     1     0     0
SMALL
bcc


@<TRIPOS>ATOM
      1 CAG          0.0000     0.0000     0.0000 ca         1 MFY      -0.109000
      2 CAE          1.3820     0.0000     0.0000 ca         1 MFY      -0.126500
      3 CAM          2.0740     0.0000     1.1980 ca         1 MFY       0.021400
      4 Cl           3.8100     0.0020     1.1980 cl         1 MFY      -0.133400
      5 CAF          1.3820    -0.0010     2.3960 ca         1 MFY      -0.126500
      6 CAH         -0.0000    -0.0010     2.3950 ca         1 MFY      -0.109000
      7 CAN         -0.6910    -0.0020     1.1980 ca         1 MFY      -0.066300
      8 CAK         -2.1980     0.0030     1.1970 c3         1 MFY       0.196100
      9 NAL         -2.6920    -1.3800     1.1940 n7         1 MFY      -0.812200
     10 CAI         -4.1610    -1.4150     1.1940 c3         1 MFY       0.179800
     11 CAJ         -4.6370    -2.8690     1.1900 c3         1 MFY      -0.256600
     12 SAO         -6.4500    -2.9110     1.1900 s6         1 MFY       1.255800
     13 OAC         -6.9600    -2.4300    -0.0460 o          1 MFY      -0.706867
     14 OAB         -6.7950    -4.3930     1.1850 o          1 MFY      -0.706867
     15 OAA         -6.9610    -2.4360     2.4270 o          1 MFY      -0.706867
     16 H1          -0.5420    -0.0000    -0.9380 ha         1 MFY       0.141500
     17 H2           1.9230     0.0020    -0.9380 ha         1 MFY       0.136500
     18 H3           1.9230    -0.0010     3.3350 ha         1 MFY       0.136500
     19 H4          -0.5420    -0.0030     3.3330 ha         1 MFY       0.141500
     20 H5          -2.5580     0.5130     2.0830 h1         1 MFY       0.035700
     21 H6          -2.5570     0.5170     0.3140 h1         1 MFY       0.035700
     22 H7          -2.3470    -1.8590     2.0010 hn         1 MFY       0.351800
     23 H9          -4.5340    -0.9150     2.0790 h1         1 MFY       0.033700
     24 H10         -4.5340    -0.9100     0.3100 h1         1 MFY       0.033700
     25 H11         -4.2640    -3.3730     2.0730 h1         1 MFY       0.079200
     26 H12         -4.2640    -3.3690     0.3040 h1         1 MFY       0.079200
@<TRIPOS>BOND
     1     4     3 1
     2     3     2 ar
     3     3     5 ar
     4     2     1 ar
     5     5     6 ar
     6     1     7 ar
     7     6     7 ar
     8     7     8 1
     9     8     9 1
    10     9    10 1
    11    10    11 1
    12    11    12 1
    13    15    12 1
    14    12    13 1
    15    12    14 1
    16     1    16 1
    17     2    17 1
    18     5    18 1
    19     6    19 1
    20     8    20 1
    21     8    21 1
    22     9    22 1
    23    10    23 1
    24    10    24 1
    25    11    25 1
    26    11    26 1
@<TRIPOS>SUBSTRUCTURE
     1 MFY         1 TEMP              0 ****  ****    0 ROOT
