@<TRIPOS>MOLECULE
molecule
   22    23     1     0     0
SMALL
bcc


@<TRIPOS>ATOM
      1 O1           0.0000     0.0000     0.0000 oh         1 MFZ      -0.599800
      2 C2           1.4290     0.0000     0.0000 c3         1 MFZ       0.233500
      3 C3           1.9200     0.0000     1.3870 c1         1 MFZ      -0.143100
      4 C4           2.2960    -0.0130     2.5000 cg         1 MFZ      -0.081300
      5 C5           3.1450     0.3410     3.5850 cc         1 MFZ      -0.021900
      6 C6           4.5410    -0.0370     3.4310 cd         1 MFZ      -0.149100
      7 N7           4.9730    -0.2550     4.6840 na         1 MFZ      -0.066400
      8 C9           4.0640    -0.0680     5.5590 ca         1 MFZ      -0.081200
      9 C10          3.7170    -0.0910     7.1160 ca         1 MFZ       0.116400
     10 Cl1          5.2270    -0.4060     7.9290 cl         1 MFZ      -0.143400
     11 C12          2.6880     0.1660     7.5240 ca         1 MFZ      -0.131000
     12 C13          1.5220     0.5510     6.7610 ca         1 MFZ      -0.105000
     13 C14          1.8150     1.2200     5.7260 ca         1 MFZ       0.122400
     14 Cl2          0.3340     2.0100     5.1620 cl         1 MFZ      -0.094400
     15 C16          2.8820     0.2930     5.1670 ca         1 MFZ      -0.118800
     16 HO1         -0.3140     0.0020    -0.8890 ho         1 MFZ       0.403000
     17 H2           1.7900    -0.8850    -0.5110 h1         1 MFZ       0.035200
     18 H2A          1.7900     0.8850    -0.5110 h1         1 MFZ       0.035200
     19 H6           5.1640     0.1650     2.5680 h4         1 MFZ       0.191000
     20 HN7          5.9080    -0.5460     4.8900 hn         1 MFZ       0.303700
     21 H12          2.5770    -0.0810     8.5730 ha         1 MFZ       0.155000
     22 H13          0.5950     0.7620     7.2800 ha         1 MFZ       0.139000
@<TRIPOS>BOND
     1     1     2 1
     2     1    16 1
     3     2     3 1
     4     2    17 1
     5     2    18 1
     6     3     4 3
     7     4     5 1
     8     5     6 2
     9     5    15 1
    10     6     7 1
    11     6    19 1
    12     7     8 1
    13     7    20 1
    14     8     9 ar
    15     8    15 ar
    16     9    10 1
    17     9    11 ar
    18    11    12 ar
    19    11    21 1
    20    12    13 ar
    21    12    22 1
    22    13    14 1
    23    13    15 ar
@<TRIPOS>SUBSTRUCTURE
     1 MFZ         1 TEMP              0 ****  ****    0 ROOT
