@<TRIPOS>MOLECULE
MG0
   50    52     1     0     0
SMALL
bcc


@<TRIPOS>ATOM
      1 C18          0.0000     0.0000     0.0000 ca         1 MG0       0.040000
      2 C17          1.3830     0.0000     0.0000 ca         1 MG0      -0.257300
      3 C16          2.0590     0.0000     1.2160 ca         1 MG0       0.554200
      4 N4           3.4490    -0.0000     1.2320 nv         1 MG0      -0.667500
      5 N3           1.3910     0.0000     2.3590 nb         1 MG0      -0.616000
      6 C15          0.0720     0.0000     2.3880 ca         1 MG0       0.515200
      7 C14         -0.6630    -0.0000     1.2200 ca         1 MG0      -0.298800
      8 S1          -2.4240     0.0070     1.2760 sy         1 MG0       1.061200
      9 O2          -2.7840     0.5500     2.5390 o          1 MG0      -0.581800
     10 O3          -2.8620     0.5560     0.0410 o          1 MG0      -0.581800
     11 N2          -2.9210    -1.5720     1.2870 n3         1 MG0      -0.538500
     12 C11         -3.1810    -2.2910     0.0310 c3         1 MG0       0.240800
     13 C10         -2.4040    -3.6120     0.0560 c3         1 MG0       0.111800
     14 C12         -3.1070    -2.2960     2.5550 c3         1 MG0       0.240800
     15 C13         -2.3390    -3.6200     2.4770 c3         1 MG0       0.111800
     16 N1          -2.7440    -4.3540     1.2780 nh         1 MG0      -0.348000
     17 C5          -2.1830    -5.6330     1.2590 ca         1 MG0       0.045600
     18 C4          -1.4160    -6.0410     0.1760 ca         1 MG0      -0.149500
     19 C3          -0.8580    -7.3050     0.1630 ca         1 MG0      -0.036500
     20 C6          -2.3860    -6.4970     2.3270 ca         1 MG0      -0.149500
     21 C1          -1.8300    -7.7620     2.3060 ca         1 MG0      -0.036500
     22 C2          -1.0630    -8.1630     1.2270 ca         1 MG0      -0.171300
     23 C7          -0.4530    -9.5410     1.2100 c3         1 MG0       0.135100
     24 C8          -0.9570   -10.3060    -0.0150 c3         1 MG0       0.557400
     25 F6          -0.4900   -11.6240     0.0340 f          1 MG0      -0.194467
     26 F4          -2.3560   -10.3060    -0.0220 f          1 MG0      -0.194467
     27 F5          -0.4850    -9.6870    -1.1780 f          1 MG0      -0.194467
     28 C9           1.0710    -9.4230     1.1470 c3         1 MG0       0.557400
     29 F3           1.6380   -10.7020     1.1300 f          1 MG0      -0.194467
     30 F1           1.4380    -8.7360    -0.0150 f          1 MG0      -0.194467
     31 F2           1.5320    -8.7240     2.2670 f          1 MG0      -0.194467
     32 O1          -0.8270   -10.2430     2.3970 oh         1 MG0      -0.532800
     33 H1          -0.5540    -0.0000    -0.9310 ha         1 MG0       0.125000
     34 H2           1.9320     0.0000    -0.9340 ha         1 MG0       0.125000
     35 H3           3.9500     0.8660     1.2510 hn         1 MG0       0.283300
     36 H4           3.9490    -0.8670     1.2510 hn         1 MG0       0.283300
     37 H5          -0.4410    -0.0000     3.3420 h4         1 MG0      -0.002900
     38 H6          -4.2410    -2.4950    -0.0580 h1         1 MG0       0.032450
     39 H7          -2.8490    -1.6900    -0.8070 h1         1 MG0       0.032450
     40 H8          -2.6730    -4.2040    -0.8110 h1         1 MG0       0.024450
     41 H9          -1.3410    -3.4050     0.0430 h1         1 MG0       0.024450
     42 H10         -2.7210    -1.7000     3.3730 h1         1 MG0       0.032450
     43 H11         -4.1600    -2.4960     2.7080 h1         1 MG0       0.032450
     44 H12         -1.2760    -3.4160     2.4320 h1         1 MG0       0.024450
     45 H13         -2.5600    -4.2150     3.3550 h1         1 MG0       0.024450
     46 H14         -1.2550    -5.3690    -0.6590 ha         1 MG0       0.124500
     47 H15         -0.2580    -7.6230    -0.6810 ha         1 MG0       0.129500
     48 H16         -2.9870    -6.1830     3.1720 ha         1 MG0       0.124500
     49 H17         -1.9880    -8.4360     3.1380 ha         1 MG0       0.129500
     50 H18         -0.4090   -11.0880     2.4080 ho         1 MG0       0.414000
@<TRIPOS>BOND
     1     1     2 ar  
     2     1     7 ar  
     3     1    33 1   
     4     2     3 ar  
     5     2    34 1   
     6     3     4 1   
     7     3     5 ar  
     8     4    35 1   
     9     4    36 1   
    10     5     6 ar  
    11     6     7 ar  
    12     6    37 1   
    13     7     8 1   
    14     8     9 2   
    15     8    10 2   
    16     8    11 1   
    17    11    12 1   
    18    11    14 1   
    19    12    13 1   
    20    12    38 1   
    21    12    39 1   
    22    13    16 1   
    23    13    40 1   
    24    13    41 1   
    25    14    15 1   
    26    14    42 1   
    27    14    43 1   
    28    15    16 1   
    29    15    44 1   
    30    15    45 1   
    31    16    17 1   
    32    17    18 ar  
    33    17    20 ar  
    34    18    19 ar  
    35    18    46 1   
    36    19    22 ar  
    37    19    47 1   
    38    20    21 ar  
    39    20    48 1   
    40    21    22 ar  
    41    21    49 1   
    42    22    23 1   
    43    23    24 1   
    44    23    28 1   
    45    23    32 1   
    46    24    25 1   
    47    24    26 1   
    48    24    27 1   
    49    28    29 1   
    50    28    30 1   
    51    28    31 1   
    52    32    50 1   
@<TRIPOS>SUBSTRUCTURE
     1 MG0         1 TEMP              0 ****  ****    0 ROOT
