@<TRIPOS>MOLECULE
MG2
   44    46     1     0     0
SMALL
bcc


@<TRIPOS>ATOM
      1 F22          0.0000     0.0000     0.0000 f          1 MG2      -0.202300
      2 C5           1.3990     0.0000     0.0000 c3         1 MG2       0.659200
      3 F20          1.8650     0.0000     1.3190 f          1 MG2      -0.202300
      4 F21          1.8650    -1.1410    -0.6600 f          1 MG2      -0.202300
      5 C3           1.9010     1.2310    -0.7100 ca         1 MG2      -0.105300
      6 C23          1.0090     2.2030    -1.1230 ca         1 MG2      -0.073000
      7 C25          1.4690     3.3320    -1.7750 ca         1 MG2      -0.053000
      8 C26          2.8210     3.4900    -2.0120 ca         1 MG2      -0.098000
      9 C24          3.7140     2.5190    -1.5980 ca         1 MG2      -0.012000
     10 C4           3.2540     1.3920    -0.9430 ca         1 MG2      -0.098500
     11 S1           4.3920     0.1570    -0.4100 sy         1 MG2       0.867300
     12 O14          5.5020     0.8920     0.0850 o          1 MG2      -0.577800
     13 O15          3.6260    -0.6800     0.4460 o          1 MG2      -0.577800
     14 C2           4.8410    -0.7300    -1.9280 c3         1 MG2      -0.016900
     15 C16          5.5430     0.2250    -2.9170 c3         1 MG2       0.157800
     16 N9           6.5950    -0.6070    -3.5590 n7         1 MG2      -0.527200
     17 C10          7.1270    -1.4400    -2.4500 c3         1 MG2       0.036500
     18 C8           5.8830    -1.8250    -1.6200 c3         1 MG2       0.029600
     19 C7           7.7980    -2.6750    -2.9950 c          1 MG2       0.559100
     20 O19          7.5610    -3.0440    -4.1270 o          1 MG2      -0.601100
     21 N11          8.6600    -3.3690    -2.2270 ns         1 MG2      -0.150900
     22 C6           9.3120    -4.5690    -2.7570 cx         1 MG2      -0.168900
     23 C18         10.2800    -5.3120    -1.8350 cx         1 MG2      -0.066400
     24 C17         10.8180    -4.4990    -3.0150 cx         1 MG2      -0.066400
     25 C12          8.4800    -5.3950    -3.7060 c2         1 MG2       0.443200
     26 N13          7.2030    -5.3540    -3.6390 n2         1 MG2      -0.609100
     27 H23          3.1820     4.3740    -2.5240 ha         1 MG2       0.112000
     28 H24          4.7740     2.6430    -1.7830 ha         1 MG2       0.122000
     29 H25          3.9640    -1.1670    -2.3890 h1         1 MG2       0.096700
     30 H26          5.9930     1.0540    -2.3850 h1         1 MG2       0.023700
     31 HA          -0.0510     2.0790    -0.9370 ha         1 MG2       0.128000
     32 HB           0.7700     4.0940    -2.0990 ha         1 MG2       0.111000
     33 H16          4.8400     0.5800    -3.6610 h1         1 MG2       0.023700
     34 H81C         6.1240    -1.8270    -0.5640 hc         1 MG2       0.033200
     35 H82C         5.5110    -2.7940    -1.9300 hc         1 MG2       0.033200
     36 H9           7.3210    -0.0150    -3.9100 hn         1 MG2       0.258800
     37 H10          7.8180    -0.8640    -1.8470 h1         1 MG2       0.024700
     38 H11          8.8680    -3.0560    -1.2990 hn         1 MG2       0.174500
     39 H181        10.4270    -4.8710    -0.8570 hc         1 MG2       0.051700
     40 H182        10.3090    -6.3880    -1.9580 hc         1 MG2       0.051700
     41 H171        11.1760    -5.0790    -3.8580 hc         1 MG2       0.051700
     42 H172        11.2940    -3.5610    -2.7570 hc         1 MG2       0.051700
     43 H13          6.7560    -4.7730    -2.9570 hn         1 MG2       0.316400
     44 H12          8.9640    -6.0230    -4.4440 h4         1 MG2      -0.006200
@<TRIPOS>BOND
     1     1     2 1   
     2     2     3 1   
     3     2     4 1   
     4     2     5 1   
     5     5     6 ar  
     6     5    10 ar  
     7     6     7 ar  
     8     6    31 1   
     9     7     8 ar  
    10     7    32 1   
    11     8     9 ar  
    12     8    27 1   
    13     9    10 ar  
    14     9    28 1   
    15    10    11 1   
    16    11    12 2   
    17    11    13 2   
    18    11    14 1   
    19    14    15 1   
    20    14    18 1   
    21    14    29 1   
    22    15    16 1   
    23    15    30 1   
    24    15    33 1   
    25    16    17 1   
    26    16    36 1   
    27    17    18 1   
    28    17    19 1   
    29    17    37 1   
    30    18    34 1   
    31    18    35 1   
    32    19    20 2   
    33    19    21 1   
    34    21    22 1   
    35    21    38 1   
    36    22    23 1   
    37    22    24 1   
    38    22    25 1   
    39    23    24 1   
    40    23    39 1   
    41    23    40 1   
    42    24    41 1   
    43    24    42 1   
    44    25    26 2   
    45    25    44 1   
    46    26    43 1   
@<TRIPOS>SUBSTRUCTURE
     1 MG2         1 TEMP              0 ****  ****    0 ROOT
