@<TRIPOS>MOLECULE
molecule
   38    40     1     0     0
SMALL
bcc


@<TRIPOS>ATOM
      1 N9           0.0000     0.0000     0.0000 na         1 MG7       0.003900
      2 C8           1.3650     0.0000     0.0000 cc         1 MG7       0.050400
      3 N7           1.8050     0.0000     1.2250 na         1 MG7       0.069900
      4 C5           0.7540    -0.0060     2.0790 cc         1 MG7      -0.204900
      5 C6           0.6300    -0.0010     3.4890 c          1 MG7       0.733100
      6 O6           1.6180    -0.0020     4.2030 o          1 MG7      -0.500500
      7 N1          -0.6100    -0.0020     4.0240 ns         1 MG7      -0.449400
      8 C2          -1.7080    -0.0020     3.2160 cc         1 MG7       0.558800
      9 N2          -2.9560    -0.0010     3.7880 nz         1 MG7      -0.745600
     10 N3          -1.6070    -0.0010     1.9060 nd         1 MG7      -0.564100
     11 C4          -0.4120    -0.0000     1.3040 cd         1 MG7       0.213100
     12 O5'          0.3230    -1.3900    -5.0660 oh         1 MG7      -0.596800
     13 C5'          0.0170    -0.0370    -4.7200 c3         1 MG7       0.150400
     14 C4'         -0.8750    -0.0170    -3.4780 c3         1 MG7       0.123100
     15 O4'         -0.1500    -0.5090    -2.3290 os         1 MG7      -0.396600
     16 C1'         -0.8660    -0.0010    -1.1820 c3         1 MG7       0.227800
     17 CN7          3.2170    -0.0020     1.6160 c3         1 MG7       0.002600
     18 C2'         -1.2550     1.4440    -1.5640 c3         1 MG7       0.091100
     19 O2'         -2.5520     1.7710    -1.0630 oh         1 MG7      -0.572800
     20 C3'         -1.2590     1.4340    -3.1110 c3         1 MG7       0.099100
     21 O3'         -2.5590     1.7500    -3.6110 oh         1 MG7      -0.558800
     22 H8           1.9880    -0.0000    -0.8860 h5         1 MG7       0.286000
     23 HN1         -0.7230    -0.0020     5.0180 hn         1 MG7       0.383500
     24 HN21        -3.1100     0.8720     4.2520 hn         1 MG7       0.500467
     25 HN22        -3.6490    -0.1280     3.0770 hn         1 MG7       0.500467
     26 HO5'         0.6400    -1.4240    -5.9530 ho         1 MG7       0.432000
     27 H5'1         0.9360     0.4990    -4.5130 h1         1 MG7       0.046200
     28 H5'2        -0.5000     0.4390    -5.5450 h1         1 MG7       0.046200
     29 H1'         -1.7560    -0.5930    -1.0040 h2         1 MG7       0.138700
     30 H71          3.8380     0.0060     0.7280 h1         1 MG7       0.112700
     31 H72          3.4270     0.8790     2.2120 h1         1 MG7       0.112700
     32 H73          3.4290    -0.8900     2.1980 h1         1 MG7       0.112700
     33 H2'         -0.5140     2.1430    -1.1950 h1         1 MG7       0.050700
     34 HO2'        -2.6150     2.7030    -0.9360 ho         1 MG7       0.433000
     35 H3'         -0.5200     2.1280    -3.4950 h1         1 MG7       0.069700
     36 HO3'        -2.4970     2.4730    -4.2140 ho         1 MG7       0.430000
     37 H23         -3.0220    -0.7510     4.4470 hn         1 MG7       0.500467
     38 H4'         -1.7670    -0.6100    -3.6400 h1         1 MG7       0.112700
@<TRIPOS>BOND
     1     1     2 2
     2     1    11 1
     3     1    16 1
     4     2     3 1
     5     2    22 1
     6     3     4 1
     7     3    17 1
     8     4     5 1
     9     4    11 2
    10     5     6 2
    11     5     7 1
    12     7     8 1
    13     7    23 1
    14     8     9 1
    15     8    10 2
    16     9    24 1
    17     9    25 1
    18    10    11 1
    19    12    13 1
    20    12    26 1
    21    13    14 1
    22    13    27 1
    23    13    28 1
    24    14    15 1
    25    14    20 1
    26    14    38 1
    27    15    16 1
    28    16    18 1
    29    16    29 1
    30    17    30 1
    31    17    31 1
    32    17    32 1
    33    18    19 1
    34    18    20 1
    35    18    33 1
    36    19    34 1
    37    20    21 1
    38    20    35 1
    39    21    36 1
    40    37     9 1
@<TRIPOS>SUBSTRUCTURE
     1 MG7         1 TEMP              0 ****  ****    0 ROOT
