@<TRIPOS>MOLECULE
MG8
   53    52     1     0     0
SMALL
bcc


@<TRIPOS>ATOM
      1 C1           0.0000     0.0000     0.0000 c3         1 MG8       0.008900
      2 C2           1.5200     0.0000     0.0000 c3         1 MG8      -0.027400
      3 C3           2.0800     0.0000     1.4230 c3         1 MG8      -0.026400
      4 C4           3.6100    -0.0340     1.4180 c3         1 MG8      -0.021400
      5 C5           4.1670    -0.0660     2.8440 c3         1 MG8      -0.024400
      6 C6           5.6960    -0.1330     2.8980 c3         1 MG8      -0.015400
      7 C7           6.2560    -0.0920     4.3210 c3         1 MG8      -0.098400
      8 C8           7.7800    -0.0830     4.3500 c          1 MG8       0.615100
      9 O8           8.4250    -0.1100     3.2990 o          1 MG8      -0.621100
     10 N            8.3720    -0.0460     5.6170 n          1 MG8      -0.183800
     11 C9           9.8190    -0.0370     5.8020 c3         1 MG8       0.033000
     12 C10         10.2390     1.2350     6.5490 c3         1 MG8       0.153100
     13 O10          9.8340     2.3660     5.7810 oh         1 MG8      -0.556800
     14 C11         11.7650     1.2940     6.7770 c3         1 MG8       0.165100
     15 O11         12.1730     0.1320     7.4970 oh         1 MG8      -0.589800
     16 C12         12.2260     2.5550     7.5470 c3         1 MG8       0.174100
     17 O12         11.8280     3.7300     6.8430 oh         1 MG8      -0.565800
     18 C13         13.7550     2.6100     7.7580 c3         1 MG8       0.162100
     19 O13         14.0870     3.7990     8.4720 oh         1 MG8      -0.576800
     20 C14         14.5520     2.5890     6.4530 c3         1 MG8       0.215400
     21 O14         15.9430     2.6060     6.7280 oh         1 MG8      -0.589800
     22 C15          7.5880    -0.0140     6.8480 c3         1 MG8       0.079300
     23 H11A        -0.3610     0.0080    -1.0210 hc         1 MG8       0.000033
     24 H12A        -0.3610    -0.8880     0.5040 hc         1 MG8       0.000033
     25 H13A        -0.3610     0.8810     0.5170 hc         1 MG8       0.000033
     26 H21          1.8740     0.8820    -0.5190 hc         1 MG8       0.011200
     27 H22          1.8740    -0.8820    -0.5190 hc         1 MG8       0.011200
     28 H31          1.7460     0.8940     1.9350 hc         1 MG8       0.011700
     29 H32          1.7080    -0.8700     1.9500 hc         1 MG8       0.011700
     30 H41          3.9440    -0.9160     0.8870 hc         1 MG8       0.014700
     31 H42          3.9830     0.8480     0.9120 hc         1 MG8       0.014700
     32 H51          3.7640    -0.9330     3.3540 hc         1 MG8       0.007200
     33 H52          3.8400     0.8260     3.3640 hc         1 MG8       0.007200
     34 H61          6.0990     0.7050     2.3430 hc         1 MG8       0.026200
     35 H62          6.0200    -1.0510     2.4250 hc         1 MG8       0.026200
     36 H71          5.8920     0.8010     4.8150 hc         1 MG8       0.026200
     37 H72          5.9010    -0.9610     4.8620 hc         1 MG8       0.026200
     38 H91         10.3060    -0.0640     4.8350 h1         1 MG8       0.039700
     39 H92         10.1130    -0.9060     6.3780 h1         1 MG8       0.039700
     40 H10          9.7380     1.2620     7.5090 h1         1 MG8       0.003700
     41 HO10         9.2580     2.9060     6.2960 ho         1 MG8       0.386000
     42 H11         12.2550     1.2860     5.8110 h1         1 MG8       0.023700
     43 HO11        12.6110    -0.4630     6.9120 ho         1 MG8       0.398000
     44 H12         11.7460     2.5570     8.5180 h1         1 MG8       0.001700
     45 HO12        11.5300     4.3790     7.4590 ho         1 MG8       0.393000
     46 H13         14.0510     1.7560     8.3550 h1         1 MG8       0.012700
     47 HO13        14.3840     3.5730     9.3380 ho         1 MG8       0.390000
     48 H141        14.2930     3.4580     5.8610 h1         1 MG8      -0.003300
     49 H142        14.3070     1.6910     5.8990 h1         1 MG8      -0.003300
     50 HO14        16.4240     2.5670     5.9180 ho         1 MG8       0.391000
     51 H151         8.2470    -0.1320     7.6990 h1         1 MG8       0.007700
     52 H152         6.8650    -0.8210     6.8360 h1         1 MG8       0.007700
     53 H153         7.0690     0.9340     6.9210 h1         1 MG8       0.007700
@<TRIPOS>BOND
     1     1     2 1   
     2     1    23 1   
     3     1    24 1   
     4     1    25 1   
     5     2     3 1   
     6     2    26 1   
     7     2    27 1   
     8     3     4 1   
     9     3    28 1   
    10     3    29 1   
    11     4     5 1   
    12     4    30 1   
    13     4    31 1   
    14     5     6 1   
    15     5    32 1   
    16     5    33 1   
    17     6     7 1   
    18     6    34 1   
    19     6    35 1   
    20     7     8 1   
    21     7    36 1   
    22     7    37 1   
    23     8     9 2   
    24     8    10 1   
    25    10    11 1   
    26    10    22 1   
    27    11    12 1   
    28    11    38 1   
    29    11    39 1   
    30    12    13 1   
    31    12    14 1   
    32    12    40 1   
    33    13    41 1   
    34    14    15 1   
    35    14    16 1   
    36    14    42 1   
    37    15    43 1   
    38    16    17 1   
    39    16    18 1   
    40    16    44 1   
    41    17    45 1   
    42    18    19 1   
    43    18    20 1   
    44    18    46 1   
    45    19    47 1   
    46    20    21 1   
    47    20    48 1   
    48    20    49 1   
    49    21    50 1   
    50    22    51 1   
    51    22    52 1   
    52    22    53 1   
@<TRIPOS>SUBSTRUCTURE
     1 MG8         1 TEMP              0 ****  ****    0 ROOT
