@<TRIPOS>MOLECULE
MG9
   55    57     1     0     0
SMALL
bcc


@<TRIPOS>ATOM
      1 C13          0.0000     0.0000     0.0000 ca         1 MG9       0.098000
      2 C12          1.3830     0.0000     0.0000 ca         1 MG9      -0.340300
      3 C11          2.0590     0.0000     1.2160 ca         1 MG9       0.542200
      4 N4           3.4490    -0.0010     1.2310 nv         1 MG9      -0.521500
      5 N3           1.3900     0.0010     2.3590 nb         1 MG9      -0.688000
      6 C10          0.0720     0.0020     2.3890 ca         1 MG9       0.561200
      7 C9          -0.6640     0.0010     1.2200 ca         1 MG9      -0.357800
      8 S1          -2.4240     0.0090     1.2770 sy         1 MG9       1.012200
      9 O1          -2.7830     0.5530     2.5400 o          1 MG9      -0.581800
     10 O2          -2.8630     0.5580     0.0410 o          1 MG9      -0.581800
     11 N2          -2.9210    -1.5700     1.2890 n3         1 MG9      -0.319500
     12 C3          -3.1080    -2.2930     2.5570 c3         1 MG9       0.065800
     13 C2          -2.3400    -3.6170     2.4800 c3         1 MG9       0.553600
     14 C6          -0.8950    -3.3430     2.4110 c1         1 MG9      -0.341100
     15 C7           0.2550    -3.1120     2.3720 c1         1 MG9      -0.074100
     16 C8           1.8780    -2.8430     2.1930 c3         1 MG9       0.155000
     17 C4          -3.1940    -2.2860     0.0340 c3         1 MG9      -0.313200
     18 C1          -2.4290    -3.6130     0.0530 c3         1 MG9      -0.289200
     19 N1          -2.7570    -4.3520     1.2780 nh         1 MG9       0.446000
     20 C5          -2.2060    -5.6350     1.2520 ca         1 MG9      -0.187400
     21 C14         -2.4960    -6.4970     0.2010 ca         1 MG9      -0.078500
     22 C15         -1.9490    -7.7640     0.1790 ca         1 MG9      -0.056500
     23 C18         -1.3600    -6.0500     2.2730 ca         1 MG9      -0.078500
     24 C17         -0.8120    -7.3170     2.2410 ca         1 MG9      -0.056500
     25 C16         -1.1120    -8.1770     1.2010 ca         1 MG9      -0.119300
     26 C19         -0.5130    -9.5590     1.1680 c3         1 MG9       0.125100
     27 C20          1.0130    -9.4530     1.2200 c3         1 MG9       0.558900
     28 F6           1.5740   -10.7250     1.0640 f          1 MG9      -0.191967
     29 F4           1.4580    -8.6170     0.1900 f          1 MG9      -0.191967
     30 F5           1.4030    -8.9200     2.4530 f          1 MG9      -0.191967
     31 C21         -1.0090   -10.3580     2.3750 c3         1 MG9       0.558900
     32 F3          -2.4040   -10.4540     2.3280 f          1 MG9      -0.191967
     33 F1          -0.4520   -11.6410     2.3460 f          1 MG9      -0.191967
     34 F2          -0.6260    -9.7100     3.5540 f          1 MG9      -0.191967
     35 O3          -0.9030   -10.2200    -0.0360 oh         1 MG9      -0.532800
     36 H1          -0.5420    -0.0000    -0.9380 ha         1 MG9       0.125000
     37 H2           1.9250    -0.0010    -0.9380 ha         1 MG9       0.123000
     38 H3           3.9590     0.0250     0.3700 hn         1 MG9       0.274300
     39 H4           3.9400     0.0050     2.1030 hn         1 MG9       0.274300
     40 H5          -0.4480     0.0030     3.3390 h4         1 MG9      -0.003900
     41 H6          -2.8860    -1.6210     3.3770 h1         1 MG9      -0.108300
     42 H7          -2.4200    -3.1290     2.5860 h1         1 MG9      -0.108300
     43 H8          -2.5590    -4.2120     3.3580 h1         1 MG9       0.055700
     44 H9           2.0970    -2.6350     1.1520 hc         1 MG9       0.014367
     45 H10          2.1740    -1.9960     2.8000 hc         1 MG9       0.014367
     46 H11          2.4270    -3.7230     2.5080 hc         1 MG9       0.014367
     47 H12         -2.4930    -3.1060    -0.0590 h1         1 MG9       0.126200
     48 H13         -3.0530    -1.6020    -0.7950 h1         1 MG9       0.126200
     49 H14         -2.8510    -4.2480     0.8220 h1         1 MG9       0.048700
     50 H15         -2.5440    -4.0960    -0.9100 h1         1 MG9       0.048700
     51 H16         -3.1510    -6.1740    -0.5990 ha         1 MG9       0.138000
     52 H17         -2.1750    -8.4370    -0.6390 ha         1 MG9       0.138000
     53 H18         -1.1280    -5.3780     3.0910 ha         1 MG9       0.138000
     54 H19         -0.1520    -7.6420     3.0370 ha         1 MG9       0.138000
     55 H20         -0.4230   -11.0270    -0.1220 ho         1 MG9       0.419000
@<TRIPOS>BOND
     1     1     2 ar  
     2     1     7 ar  
     3     1    36 1   
     4     2     3 ar  
     5     2    37 1   
     6     3     4 1   
     7     3     5 ar  
     8     4    38 1   
     9     4    39 1   
    10     5     6 ar  
    11     6     7 ar  
    12     6    40 1   
    13     7     8 1   
    14     8     9 2   
    15     8    10 2   
    16     8    11 1   
    17    11    12 1   
    18    11    17 1   
    19    12    13 1   
    20    12    41 1   
    21    12    42 1   
    22    13    14 1   
    23    13    19 1   
    24    13    43 1   
    25    14    15 3   
    26    15    16 1   
    27    16    44 1   
    28    16    45 1   
    29    16    46 1   
    30    17    18 1   
    31    17    47 1   
    32    17    48 1   
    33    18    19 1   
    34    18    49 1   
    35    18    50 1   
    36    19    20 1   
    37    20    21 ar  
    38    20    23 ar  
    39    21    22 ar  
    40    21    51 1   
    41    22    25 ar  
    42    22    52 1   
    43    23    24 ar  
    44    23    53 1   
    45    24    25 ar  
    46    24    54 1   
    47    25    26 1   
    48    26    27 1   
    49    26    31 1   
    50    26    35 1   
    51    27    28 1   
    52    27    29 1   
    53    27    30 1   
    54    31    32 1   
    55    31    33 1   
    56    31    34 1   
    57    35    55 1   
@<TRIPOS>SUBSTRUCTURE
     1 MG9         1 TEMP              0 ****  ****    0 ROOT
