@<TRIPOS>MOLECULE
MGB
   27    26     1     0     0
SMALL
bcc


@<TRIPOS>ATOM
      1 N1           0.0000     0.0000     0.0000 nz         1 MGB       0.133400
      2 N2           2.0270     0.0000    -1.1300 n2         1 MGB      -0.473100
      3 C3           1.3760     0.0000     0.0000 c2         1 MGB       0.237100
      4 N4           2.0640     0.0000     1.1910 nu         1 MGB      -0.157300
      5 N5           3.4660    -0.0000     1.1910 n2         1 MGB      -0.360400
      6 C6           4.1170     0.0000     2.3180 ce         1 MGB       0.280900
      7 C7           5.5790    -0.0010     2.3170 ce         1 MGB       0.344000
      8 C8           6.3320    -0.1140     1.0160 c3         1 MGB      -0.012400
      9 N9           6.2310     0.0980     3.4400 n2         1 MGB      -0.416400
     10 N10          5.5350     0.0880     4.6570 nu         1 MGB      -0.166300
     11 C11          6.2110     0.3020     5.8360 c2         1 MGB       0.236100
     12 N12          7.4970     0.5130     5.8220 n2         1 MGB      -0.475100
     13 N13          5.5270     0.2920     7.0300 nz         1 MGB       0.130400
     14 H11         -0.3340    -0.9370     0.1130 hn         1 MGB       0.231467
     15 H12         -0.3340     0.5660     0.7550 hn         1 MGB       0.231467
     16 H21          1.5270     0.0000    -1.9970 hn         1 MGB       0.353400
     17 H41          1.5640    -0.0220     2.0580 hn         1 MGB       0.274800
     18 H61          3.5760     0.0490     3.2560 h4         1 MGB      -0.045200
     19 H81          6.1070     0.7430     0.3930 hc         1 MGB       0.039367
     20 H82          6.0340    -1.0210     0.5050 hc         1 MGB       0.039367
     21 H83          7.3960    -0.1450     1.2170 hc         1 MGB       0.039367
     22 H101         4.5660    -0.1630     4.6760 hn         1 MGB       0.268800
     23 H121         7.9890     0.6680     6.6800 hn         1 MGB       0.349400
     24 H131         4.6310     0.7200     6.9060 hn         1 MGB       0.227800
     25 H132         6.0480     0.8020     7.7170 hn         1 MGB       0.227800
     26 H13         -0.3340     0.3640    -0.8710 hn         1 MGB       0.231467
     27 H133         5.4020    -0.6530     7.3350 hn         1 MGB       0.227800
@<TRIPOS>BOND
     1     1     3 1   
     2     1    14 1   
     3     1    15 1   
     4     1    26 1   
     5     2     3 2   
     6     2    16 1   
     7     3     4 1   
     8     4     5 1   
     9     4    17 1   
    10     5     6 2   
    11     6     7 1   
    12     6    18 1   
    13     7     8 1   
    14     7     9 2   
    15     8    19 1   
    16     8    20 1   
    17     8    21 1   
    18     9    10 1   
    19    10    11 1   
    20    10    22 1   
    21    11    12 2   
    22    11    13 1   
    23    12    23 1   
    24    13    24 1   
    25    13    25 1   
    26    13    27 1   
@<TRIPOS>SUBSTRUCTURE
     1 MGB         1 TEMP              0 ****  ****    0 ROOT
