@<TRIPOS>MOLECULE
molecule
   27    26     1     0     0
SMALL
bcc


@<TRIPOS>ATOM
      1 N1           0.0000     0.0000     0.0000 nz         1 MGB      -0.741600
      2 N2           2.0270     0.0000    -1.1300 n2         1 MGB      -0.729100
      3 C3           1.3760     0.0000     0.0000 c2         1 MGB       0.677100
      4 N4           2.0640     0.0000     1.1910 nu         1 MGB      -0.619300
      5 N5           3.4660    -0.0000     1.1910 n2         1 MGB      -0.329400
      6 C6           4.1170     0.0000     2.3180 ce         1 MGB       0.273900
      7 C7           5.5790    -0.0010     2.3170 ce         1 MGB       0.368000
      8 C8           6.3320    -0.1140     1.0160 c3         1 MGB      -0.118400
      9 N9           6.2310     0.0980     3.4400 n2         1 MGB      -0.322400
     10 N10          5.5350     0.0880     4.6570 nu         1 MGB      -0.561300
     11 C11          6.2110     0.3020     5.8360 c2         1 MGB       0.852100
     12 N12          7.4970     0.5130     5.8220 n2         1 MGB      -0.955100
     13 N13          5.5270     0.2920     7.0300 nz         1 MGB      -0.823600
     14 H11         -0.3340     0.8170     0.4720 hn         1 MGB       0.486467
     15 H12         -0.3340    -0.8180     0.4710 hn         1 MGB       0.486467
     16 H21          3.0280     0.0000    -1.1320 hn         1 MGB       0.499400
     17 H41          1.5640     0.0050     2.0580 hn         1 MGB       0.429800
     18 H61          3.5750     0.0010     3.2570 h4         1 MGB      -0.013200
     19 H81          6.0300    -1.0190     0.5020 hc         1 MGB       0.088033
     20 H82          7.3960    -0.1500     1.2170 hc         1 MGB       0.088033
     21 H83          6.1110     0.7450     0.3950 hc         1 MGB       0.088033
     22 H101         4.5550    -0.1170     4.6720 hn         1 MGB       0.411800
     23 H121         8.1320    -0.2580     5.8910 hn         1 MGB       0.558400
     24 H131         4.7780     0.9550     6.9920 hn         1 MGB       0.472133
     25 H132         6.1510     0.5370     7.7740 hn         1 MGB       0.472133
     26 H13         -0.3340    -0.0020    -0.9440 hn         1 MGB       0.486467
     27 H133         5.1550    -0.6220     7.1950 hn         1 MGB       0.472133
@<TRIPOS>BOND
     1     1     3 1
     2     1    14 1
     3     1    15 1
     4     2     3 2
     5     2    16 1
     6     3     4 1
     7     4     5 1
     8     4    17 1
     9     5     6 2
    10     6     7 1
    11     6    18 1
    12     7     8 1
    13     7     9 2
    14     8    19 1
    15     8    20 1
    16     8    21 1
    17     9    10 1
    18    10    11 1
    19    10    22 1
    20    11    12 2
    21    11    13 1
    22    12    23 1
    23    13    24 1
    24    13    25 1
    25    26     1 1
    26    27    13 1
@<TRIPOS>SUBSTRUCTURE
     1 MGB         1 TEMP              0 ****  ****    0 ROOT
