@<TRIPOS>MOLECULE
molecule
   33    33     1     0     0
SMALL
bcc


@<TRIPOS>ATOM
      1 O6           0.0000     0.0000     0.0000 oh         1 MGC      -0.602800
      2 C6           1.4290     0.0000     0.0000 c3         1 MGC       0.147400
      3 C5           1.9390     0.0000     1.4430 c3         1 MGC       0.124100
      4 O5           1.5620    -1.2190     2.0790 os         1 MGC      -0.381600
      5 C1           1.8960    -1.1060     3.4610 c3         1 MGC       0.294900
      6 O1           1.3260     0.0920     3.9910 os         1 MGC      -0.444600
      7 CM          -0.0890    -0.1050     4.0310 c3         1 MGC       0.110700
      8 C2           3.4170    -1.0620     3.6250 c3         1 MGC       0.102700
      9 N2           3.7550    -0.9740     5.0470 ns         1 MGC      -0.575900
     10 C7           3.8460    -2.0960     5.7880 c          1 MGC       0.658100
     11 O7           3.6480    -3.1780     5.2770 o          1 MGC      -0.607100
     12 C8           4.1930    -2.0050     7.2520 c3         1 MGC      -0.171100
     13 C3           3.9640     0.1670     2.8910 c3         1 MGC       0.125100
     14 O3           5.3920     0.1430     2.9060 oh         1 MGC      -0.587800
     15 C4           3.4640     0.1340     1.4420 c3         1 MGC       0.109100
     16 O4           4.0420    -0.9810     0.7600 oh         1 MGC      -0.575800
     17 HO6         -0.3140     0.1160    -0.8810 ho         1 MGC       0.403000
     18 H61          1.7910    -0.8840    -0.5110 h1         1 MGC       0.033700
     19 H62          1.7900     0.8850    -0.5100 h1         1 MGC       0.033700
     20 H5           1.5070     0.8340     1.9820 h1         1 MGC       0.073700
     21 H1           1.5040    -1.9630     3.9950 h2         1 MGC       0.098700
     22 HM1         -0.4000    -0.2790     5.0540 h1         1 MGC       0.041033
     23 HM2         -0.5870     0.7760     3.6470 h1         1 MGC       0.041033
     24 HM3         -0.3510    -0.9620     3.4230 h1         1 MGC       0.041033
     25 H2           3.8510    -1.9580     3.1990 h1         1 MGC       0.127700
     26 HN2          3.9420    -0.0830     5.4630 hn         1 MGC       0.314500
     27 H81          4.2260    -3.0010     7.6780 hc         1 MGC       0.060367
     28 H82          3.4430    -1.4170     7.7660 hc         1 MGC       0.060367
     29 H83          5.1620    -1.5330     7.3650 hc         1 MGC       0.060367
     30 H3           3.6060     1.0670     3.3760 h1         1 MGC       0.049700
     31 HO3          5.7170     0.9790     3.1960 ho         1 MGC       0.398000
     32 H4           3.7450     1.0540     0.9440 h1         1 MGC       0.038700
     33 HO4          4.5770    -0.6710     0.0480 ho         1 MGC       0.402000
@<TRIPOS>BOND
     1     1     2 1
     2     1    17 1
     3     2     3 1
     4     2    18 1
     5     2    19 1
     6     3     4 1
     7     3    15 1
     8     3    20 1
     9     4     5 1
    10     5     6 1
    11     5     8 1
    12     5    21 1
    13     6     7 1
    14     7    22 1
    15     7    23 1
    16     7    24 1
    17     8     9 1
    18     8    13 1
    19     8    25 1
    20     9    10 1
    21     9    26 1
    22    10    11 2
    23    10    12 1
    24    12    27 1
    25    12    28 1
    26    12    29 1
    27    13    14 1
    28    13    15 1
    29    13    30 1
    30    14    31 1
    31    15    16 1
    32    15    32 1
    33    16    33 1
@<TRIPOS>SUBSTRUCTURE
     1 MGC         1 TEMP              0 ****  ****    0 ROOT
