@<TRIPOS>MOLECULE
MGE
  120   114     1     0     0
SMALL
bcc


@<TRIPOS>ATOM
      1 C1A        -2.4710    0.9100   -0.8770 c2        1 MGE      0.330000
      2 C2A        -1.3540    1.1090    0.0900 c3        1 MGE     -0.164000
      3 C3A        -0.0670    1.4700   -0.6210 c3        1 MGE     -0.161000
      4 C4A         1.0710    1.6060    0.3690 c3        1 MGE     -0.157000
      5 C5A         2.3590    1.9800   -0.3330 c3        1 MGE     -0.158000
      6 C6A         3.5000    2.1110    0.6520 c3        1 MGE     -0.158000
      7 C7A         4.7880    2.4880   -0.0490 c3        1 MGE     -0.158000
      8 C8A         5.9310    2.6150    0.9350 c3        1 MGE     -0.158000
      9 C9A         7.2180    2.9970    0.2350 c3        1 MGE     -0.157000
     10 CAA         8.3630    3.1190    1.2180 c3        1 MGE     -0.162000
     11 CBA         9.6470    3.5010    0.5140 c3        1 MGE     -0.140000
     12 CCA        10.7920    3.6370    1.5000 c3        1 MGE     -0.247000
     13 CDA        12.0670    3.8530    0.8460 c1        1 MGE     -0.044000
     14 O1A        -2.5150    0.9880   -2.0950 o         1 MGE     -0.282000
     15 C2B        -3.1660   -0.0650   -5.2640 c3        1 MGE     -0.165000
     16 C3B        -3.7200    0.7500   -6.4130 c3        1 MGE     -0.156000
     17 C4B        -2.8450    1.9550   -6.6820 c3        1 MGE     -0.158000
     18 C5B        -3.3890    2.7730   -7.8340 c3        1 MGE     -0.157000
     19 C6B        -2.5190    3.9820   -8.1060 c3        1 MGE     -0.158000
     20 C7B        -3.0620    4.8010   -9.2570 c3        1 MGE     -0.158000
     21 C8B        -2.1930    6.0100   -9.5280 c3        1 MGE     -0.158000
     22 C9B        -2.7360    6.8290  -10.6800 c3        1 MGE     -0.158000
     23 CAB        -1.8690    8.0400  -10.9500 c3        1 MGE     -0.158000
     24 CBB        -2.4120    8.8590  -12.1020 c3        1 MGE     -0.158000
     25 CCB        -1.5450   10.0700  -12.3700 c3        1 MGE     -0.157000
     26 CDB        -2.0870   10.8890  -13.5230 c3        1 MGE     -0.162000
     27 CEB        -1.2220   12.1030  -13.7850 c3        1 MGE     -0.140000
     28 CFB        -1.7540   12.9120  -14.9520 c3        1 MGE     -0.247000
     29 CGB        -1.0460   14.1640  -15.1300 c1        1 MGE     -0.045000
     30 O1B        -5.2140   -1.4540   -5.2880 o         1 MGE     -0.345000
     31 O1G        -3.6470    0.4460   -0.2400 os        1 MGE     -0.256000
     32 C1G        -4.8150    0.8930   -0.6780 c1        1 MGE      0.014000
     33 C2G        -4.2530   -3.2030   -3.5990 c3        1 MGE     -0.095000
     34 O2G        -3.4610   -2.1200   -4.0820 os        1 MGE     -0.303000
     35 C3G        -4.1970   -4.3700   -4.5490 c2        1 MGE      0.184000
     36 O3G        -4.4740   -5.5140   -4.1820 o         1 MGE     -0.314000
     37 C1D        -1.8080   -7.3790   -3.7810 c2        1 MGE      0.169000
     38 C2D        -1.8150   -7.6040   -5.2790 c3        1 MGE     -0.064000
     39 O2D        -3.1310   -7.8290   -5.7480 oh        1 MGE     -0.328000
     40 C3D        -1.1800   -6.4550   -6.0890 c3        1 MGE     -0.018000
     41 O3D        -2.1920   -5.5860   -6.5790 oh        1 MGE     -0.347000
     42 C4D        -0.1500   -5.6070   -5.3140 c3        1 MGE      0.085000
     43 O4D         0.7840   -5.0800   -6.2450 oh        1 MGE     -0.320000
     44 C5D        -0.7790   -4.5190   -4.5140 c2        1 MGE     -0.353000
     45 C6D        -0.3630   -4.1910   -3.2800 c2        1 MGE      0.034000
     46 O6D        -0.8390   -7.6590   -3.0770 o         1 MGE     -0.287000
     47 H2A1       -2.8550   -1.6120   -1.6560 ha        1 MGE      0.003833
     48 H2A2       -2.3860   -1.6810   -1.1700 ha        1 MGE      0.003833
     49 H3A1       -1.6490    1.9180    0.8110 hc        1 MGE      0.127000
     50 H3A2       -1.2270    0.1590    0.6780 hc        1 MGE      0.127000
     51 H4A1       -0.2040    2.4320   -1.1820 hc        1 MGE      0.099500
     52 H4A2        0.1760    0.6790   -1.3800 hc        1 MGE      0.099500
     53 H5A1        1.2100    0.6390    0.9200 hc        1 MGE      0.082000
     54 H5A2        0.8170    2.3890    1.1310 hc        1 MGE      0.082000
     55 H6A1        2.6100    1.1980   -1.0990 hc        1 MGE      0.083000
     56 H6A2        2.2210    2.9490   -0.8820 hc        1 MGE      0.083000
     57 H7A1        3.6400    1.1400    1.1980 hc        1 MGE      0.079500
     58 H7A2        3.2480    2.8880    1.4200 hc        1 MGE      0.079500
     59 H8A1        4.6500    3.4610   -0.5920 hc        1 MGE      0.081000
     60 H8A2        5.0390    1.7120   -0.8190 hc        1 MGE      0.081000
     61 H9A1        5.6790    3.3880    1.7080 hc        1 MGE      0.078500
     62 H9A2        6.0720    1.6410    1.4760 hc        1 MGE      0.078500
     63 H101        7.4680    2.2250   -0.5400 hc        1 MGE      0.082000
     64 H102        7.0780    3.9710   -0.3030 hc        1 MGE      0.082000
     65 H111        8.1110    3.8900    1.9930 hc        1 MGE      0.076000
     66 H112        8.5020    2.1440    1.7550 hc        1 MGE      0.076000
     67 H121        9.5080    4.4740   -0.0270 hc        1 MGE      0.093000
     68 H122        9.9090    2.7290   -0.2560 hc        1 MGE      0.093000
     69 H131       10.5320    4.4160    2.2710 hc        1 MGE      0.110500
     70 H132       10.9180    2.6600    2.0620 hc        1 MGE      0.110500
     71 H133       12.8480    4.3030    1.4840 ha        1 MGE      0.030000
     72 H2B1       -1.2970   -0.6410   -3.4240 ha        1 MGE      0.003833
     73 H2B2       -0.7680   -0.6150   -3.0000 ha        1 MGE      0.003833
     74 H3B1       -3.0710    0.5670   -4.3350 hc        1 MGE      0.135500
     75 H3B2       -2.1430   -0.4560   -5.5110 hc        1 MGE      0.135500
     76 H4B1       -4.7640    1.0800   -6.1680 hc        1 MGE      0.096000
     77 H4B2       -3.7840    0.1110   -7.3320 hc        1 MGE      0.096000
     78 H5B1       -2.7890    2.5930   -5.7610 hc        1 MGE      0.083000
     79 H5B2       -1.8010    1.6200   -6.9180 hc        1 MGE      0.083000
     80 H6B1       -4.4340    3.1070   -7.5990 hc        1 MGE      0.081500
     81 H6B2       -3.4450    2.1350   -8.7560 hc        1 MGE      0.081500
     82 H7B1       -2.4630    4.6200   -7.1840 hc        1 MGE      0.079500
     83 H7B2       -1.4740    3.6490   -8.3410 hc        1 MGE      0.079500
     84 H8B1       -3.1170    4.1630  -10.1790 hc        1 MGE      0.079500
     85 H8B2       -4.1070    5.1330   -9.0220 hc        1 MGE      0.079500
     86 H9B1       -2.1380    6.6480   -8.6070 hc        1 MGE      0.079000
     87 H9B2       -1.1480    5.6780   -9.7640 hc        1 MGE      0.079000
     88 H201       -3.7820    7.1610  -10.4450 hc        1 MGE      0.079000
     89 H202       -2.7910    6.1920  -11.6020 hc        1 MGE      0.079000
     90 H211       -0.8230    7.7090  -11.1840 hc        1 MGE      0.079500
     91 H212       -1.8150    8.6770  -10.0280 hc        1 MGE      0.079500
     92 H221       -2.4650    8.2220  -13.0240 hc        1 MGE      0.078500
     93 H222       -3.4580    9.1890  -11.8680 hc        1 MGE      0.078500
     94 H231       -1.4930   10.7080  -11.4480 hc        1 MGE      0.081500
     95 H232       -0.4990    9.7400  -12.6030 hc        1 MGE      0.081500
     96 H241       -3.1350   11.2150  -13.2900 hc        1 MGE      0.076500
     97 H242       -2.1360   10.2520  -14.4450 hc        1 MGE      0.076500
     98 H251       -0.1720   11.7780  -14.0080 hc        1 MGE      0.093000
     99 H252       -1.1800   12.7500  -12.8700 hc        1 MGE      0.093000
    100 H261       -1.7870   12.2650  -15.8730 hc        1 MGE      0.110500
    101 H262       -2.8250   13.2180  -14.7360 hc        1 MGE      0.110500
    102 H263       -1.1320   14.6090  -16.1370 ha        1 MGE      0.030000
    103 H1G1       -4.9720   -0.7710   -2.3840 ha        1 MGE      0.003833
    104 H1G2       -4.6390   -0.2500   -2.6680 ha        1 MGE      0.003833
    105 H2G        -5.6020    0.3530   -0.0860 ha        1 MGE      0.029000
    106 H3G1       -3.7850   -3.4580   -2.6070 h1        1 MGE      0.140000
    107 H3G2       -5.3220   -2.8850   -3.4520 h1        1 MGE      0.140000
    108 H1D        -3.8850   -4.1390   -5.5920 h4        1 MGE      0.125000
    109 H2D        -2.7540   -6.9640   -3.3630 h4        1 MGE      0.117000
    110 H4         -3.6960   -7.1160   -5.4100 ho        1 MGE      0.227000
    111 H3D        -1.2660   -8.5640   -5.5110 h1        1 MGE      0.142000
    112 H3         -2.7330   -6.1070   -7.1890 ho        1 MGE      0.219000
    113 H4D        -0.6400   -6.9160   -6.9680 h1        1 MGE      0.101000
    114 H2          0.3210   -4.4130   -6.7670 ho        1 MGE      0.205000
    115 H5D         0.4660   -6.2990   -4.6680 h1        1 MGE      0.134000
    116 H1         -1.5780   -2.7160   -3.0630 ho        1 MGE      0.232000
    117 H6D1       -1.5930   -3.9660   -5.0110 ha        1 MGE      0.141000
    118 H6D2        0.4370   -4.6940   -2.7120 h4        1 MGE      0.174000
    119 O5D        -0.9030   -3.1780   -2.5360 oh        1 MGE     -0.277000
    120 C1B        -4.0610   -1.2140   -4.9340 c2        1 MGE      0.312000
@<TRIPOS>BOND
     1    1    2 1   
     2    1   14 1   
     3    1   31 1   
     4    2    3 1   
     5    2   49 1   
     6    2   50 1   
     7    3    4 1   
     8    3   51 1   
     9    3   52 1   
    10    4    5 1   
    11    4   53 1   
    12    4   54 1   
    13    5    6 1   
    14    5   55 1   
    15    5   56 1   
    16    6    7 1   
    17    6   57 1   
    18    6   58 1   
    19    7    8 1   
    20    7   59 1   
    21    7   60 1   
    22    8    9 1   
    23    8   61 1   
    24    8   62 1   
    25    9   10 1   
    26    9   63 1   
    27    9   64 1   
    28   10   11 1   
    29   10   65 1   
    30   10   66 1   
    31   11   12 1   
    32   11   67 1   
    33   11   68 1   
    34   12   13 1   
    35   12   69 1   
    36   12   70 1   
    37   13   71 1   
    38   15   16 1   
    39   15   74 1   
    40   15   75 1   
    41   15  120 1   
    42   16   17 1   
    43   16   76 1   
    44   16   77 1   
    45   17   18 1   
    46   17   78 1   
    47   17   79 1   
    48   18   19 1   
    49   18   80 1   
    50   18   81 1   
    51   19   20 1   
    52   19   82 1   
    53   19   83 1   
    54   20   21 1   
    55   20   84 1   
    56   20   85 1   
    57   21   22 1   
    58   21   86 1   
    59   21   87 1   
    60   22   23 1   
    61   22   88 1   
    62   22   89 1   
    63   23   24 1   
    64   23   90 1   
    65   23   91 1   
    66   24   25 1   
    67   24   92 1   
    68   24   93 1   
    69   25   26 1   
    70   25   94 1   
    71   25   95 1   
    72   26   27 1   
    73   26   96 1   
    74   26   97 1   
    75   27   28 1   
    76   27   98 1   
    77   27   99 1   
    78   28   29 1   
    79   28  100 1   
    80   28  101 1   
    81   29  102 1   
    82   30  120 1   
    83   31   32 1   
    84   32  105 1   
    85   33   34 1   
    86   33   35 1   
    87   33  106 1   
    88   33  107 1   
    89   34  120 1   
    90   35   36 1   
    91   35  108 1   
    92   37   38 1   
    93   37   46 1   
    94   37  109 1   
    95   38   39 1   
    96   38   40 1   
    97   38  111 1   
    98   39  110 1   
    99   40   41 1   
   100   40   42 1   
   101   40  113 1   
   102   41  112 1   
   103   42   43 1   
   104   42   44 1   
   105   42  115 1   
   106   43  114 1   
   107   44   45 1   
   108   44  117 1   
   109   45  118 1   
   110   45  119 1   
   111   47   48 1   
   112   72   73 1   
   113  103  104 1   
   114  116  119 1   
@<TRIPOS>SUBSTRUCTURE
     1 MGE         1 TEMP              0 ****  ****    0 ROOT
