@<TRIPOS>MOLECULE
molecule
  120   120     1     0     0
SMALL
bcc


@<TRIPOS>ATOM
      1 C1A          0.0000     0.0000     0.0000 c          1 MGE       0.636100
      2 C2A          1.5060     0.0000     0.0000 c3         1 MGE      -0.124400
      3 C3A          2.0170     0.0000     1.4430 c3         1 MGE      -0.072400
      4 C4A          3.5470     0.0010     1.4420 c3         1 MGE      -0.084400
      5 C5A          4.0570     0.0000     2.8850 c3         1 MGE      -0.080400
      6 C6A          5.5870     0.0020     2.8850 c3         1 MGE      -0.082400
      7 C7A          6.0970     0.0010     4.3280 c3         1 MGE      -0.081400
      8 C8A          7.6270     0.0020     4.3280 c3         1 MGE      -0.082400
      9 C9A          8.1370     0.0010     5.7700 c3         1 MGE      -0.081400
     10 CAA          9.6670     0.0020     5.7700 c3         1 MGE      -0.082400
     11 CBA         10.1770     0.0030     7.2130 c3         1 MGE      -0.081400
     12 CCA         11.7070     0.0030     7.2130 c3         1 MGE      -0.084400
     13 CDA         12.2170     0.0030     8.6550 c3         1 MGE      -0.092100
     14 O1A         -0.6040     0.0950     1.0430 o          1 MGE      -0.558000
     15 C2B         -2.3840     2.1750    -5.4940 c3         1 MGE      -0.119400
     16 C3B         -3.3990     2.3810    -6.6210 c3         1 MGE      -0.071400
     17 C4B         -2.8880     3.4650    -7.5730 c3         1 MGE      -0.084400
     18 C5B         -3.9020     3.6710    -8.7010 c3         1 MGE      -0.079400
     19 C6B         -3.3940     4.7550    -9.6530 c3         1 MGE      -0.082400
     20 C7B         -4.4070     4.9610   -10.7800 c3         1 MGE      -0.081400
     21 C8B         -3.8980     6.0450   -11.7330 c3         1 MGE      -0.082400
     22 C9B         -4.9120     6.2510   -12.8590 c3         1 MGE      -0.081400
     23 CAB         -4.4020     7.3350   -13.8120 c3         1 MGE      -0.082400
     24 CBB         -5.4150     7.5410   -14.9390 c3         1 MGE      -0.082400
     25 CCB         -4.9070     8.6250   -15.8910 c3         1 MGE      -0.082400
     26 CDB         -5.9200     8.8310   -17.0180 c3         1 MGE      -0.082400
     27 CEB         -5.4110     9.9140   -17.9710 c3         1 MGE      -0.081400
     28 CFB         -6.4250    10.1210   -19.0980 c3         1 MGE      -0.084400
     29 CGB         -5.9150    11.2040   -20.0500 c3         1 MGE      -0.092100
     30 O1B         -3.9470     0.5680    -4.7670 o          1 MGE      -0.523000
     31 O1G         -0.6710    -0.1050    -1.1570 os         1 MGE      -0.428900
     32 C1G         -2.1190     0.0050    -1.1700 c3         1 MGE       0.157400
     33 C2G         -2.6390    -0.2710    -2.5820 c3         1 MGE       0.163100
     34 O2G         -2.1560     0.7580    -3.4860 os         1 MGE      -0.430900
     35 C3G         -2.1390    -1.6390    -3.0510 c3         1 MGE       0.093400
     36 O3G         -2.7240    -1.9510    -4.3170 os         1 MGE      -0.368600
     37 C1D         -2.3240    -3.2840    -4.6390 c3         1 MGE       0.307900
     38 C2D         -3.1470    -3.7900    -5.8260 c3         1 MGE       0.115100
     39 O2D         -4.5330    -3.8030    -5.4760 oh         1 MGE      -0.572800
     40 C3D         -2.9290    -2.8560    -7.0210 c3         1 MGE       0.120100
     41 O3D         -3.4720    -1.5670    -6.7310 oh         1 MGE      -0.544800
     42 C4D         -1.4230    -2.7330    -7.2780 c3         1 MGE       0.112100
     43 O4D         -1.1870    -1.7530    -8.2910 oh         1 MGE      -0.587800
     44 C5D         -0.7290    -2.3070    -5.9820 c3         1 MGE       0.134100
     45 C6D          0.7710    -2.1510    -6.2370 c3         1 MGE       0.147400
     46 O6D         -0.9370    -3.2960    -4.9750 os         1 MGE      -0.411600
     47 H2A1         1.8670    -0.8840    -0.5110 hc         1 MGE       0.074200
     48 H2A2         1.8670     0.8840    -0.5110 hc         1 MGE       0.074200
     49 H3A1         1.6570    -0.8850     1.9540 hc         1 MGE       0.058200
     50 H3A2         1.6560     0.8840     1.9540 hc         1 MGE       0.058200
     51 H4A1         3.9080     0.8860     0.9320 hc         1 MGE       0.040700
     52 H4A2         3.9090    -0.8830     0.9310 hc         1 MGE       0.040700
     53 H5A1         3.6950     0.8840     3.3960 hc         1 MGE       0.043700
     54 H5A2         3.6960    -0.8850     3.3950 hc         1 MGE       0.043700
     55 H6A1         5.9490    -0.8820     2.3740 hc         1 MGE       0.040700
     56 H6A2         5.9480     0.8870     2.3750 hc         1 MGE       0.040700
     57 H7A1         5.7360    -0.8840     4.8380 hc         1 MGE       0.041700
     58 H7A2         5.7350     0.8850     4.8390 hc         1 MGE       0.041700
     59 H8A1         7.9880     0.8870     3.8170 hc         1 MGE       0.040700
     60 H8A2         7.9890    -0.8820     3.8160 hc         1 MGE       0.040700
     61 H9A1         7.7760    -0.8840     6.2800 hc         1 MGE       0.041700
     62 H9A2         7.7750     0.8850     6.2810 hc         1 MGE       0.041700
     63 H101        10.0290    -0.8820     5.2600 hc         1 MGE       0.040700
     64 H102        10.0280     0.8870     5.2600 hc         1 MGE       0.040700
     65 H111         9.8160    -0.8820     7.7240 hc         1 MGE       0.041200
     66 H112         9.8160     0.8870     7.7230 hc         1 MGE       0.041200
     67 H121        12.0680    -0.8820     6.7020 hc         1 MGE       0.039700
     68 H122        12.0690     0.8870     6.7020 hc         1 MGE       0.039700
     69 H131        13.3010     0.0030     8.6550 hc         1 MGE       0.032367
     70 H132        11.8570     0.8880     9.1660 hc         1 MGE       0.032367
     71 H133        11.8560    -0.8810     9.1660 hc         1 MGE       0.032367
     72 H2B1        -1.4340     1.8680    -5.9150 hc         1 MGE       0.069200
     73 H2B2        -2.2550     3.1030    -4.9500 hc         1 MGE       0.069200
     74 H3B1        -4.3490     2.6880    -6.2000 hc         1 MGE       0.059700
     75 H3B2        -3.5280     1.4540    -7.1660 hc         1 MGE       0.059700
     76 H4B1        -1.9380     3.1590    -7.9940 hc         1 MGE       0.039700
     77 H4B2        -2.7600     4.3930    -7.0290 hc         1 MGE       0.039700
     78 H5B1        -4.8530     3.9780    -8.2800 hc         1 MGE       0.042700
     79 H5B2        -4.0310     2.7440    -9.2450 hc         1 MGE       0.042700
     80 H6B1        -2.4430     4.4490   -10.0740 hc         1 MGE       0.040700
     81 H6B2        -3.2650     5.6830    -9.1090 hc         1 MGE       0.040700
     82 H7B1        -5.3570     5.2680   -10.3600 hc         1 MGE       0.041200
     83 H7B2        -4.5360     4.0330   -11.3240 hc         1 MGE       0.041200
     84 H8B1        -2.9480     5.7380   -12.1540 hc         1 MGE       0.040700
     85 H8B2        -3.7680     6.9720   -11.1890 hc         1 MGE       0.040700
     86 H9B1        -5.0410     5.3230   -13.4040 hc         1 MGE       0.041200
     87 H9B2        -5.8620     6.5580   -12.4380 hc         1 MGE       0.041200
     88 H201        -3.4520     7.0290   -14.2330 hc         1 MGE       0.040700
     89 H202        -4.2730     8.2630   -13.2680 hc         1 MGE       0.040700
     90 H211        -6.3660     7.8470   -14.5190 hc         1 MGE       0.040700
     91 H212        -5.5430     6.6130   -15.4830 hc         1 MGE       0.040700
     92 H221        -3.9560     8.3190   -16.3120 hc         1 MGE       0.040700
     93 H222        -4.7780     9.5530   -15.3470 hc         1 MGE       0.040700
     94 H231        -6.0490     7.9030   -17.5620 hc         1 MGE       0.040700
     95 H232        -6.8700     9.1370   -16.5980 hc         1 MGE       0.040700
     96 H241        -4.4610     9.6070   -18.3920 hc         1 MGE       0.040700
     97 H242        -5.2810    10.8420   -17.4270 hc         1 MGE       0.040700
     98 H251        -6.5550     9.1930   -19.6430 hc         1 MGE       0.039700
     99 H252        -7.3750    10.4280   -18.6770 hc         1 MGE       0.039700
    100 H261        -6.6330    11.3500   -20.8480 hc         1 MGE       0.032367
    101 H262        -4.9660    10.8970   -20.4710 hc         1 MGE       0.032367
    102 H263        -5.7860    12.1310   -19.5060 hc         1 MGE       0.032367
    103 H1G1        -2.5430    -0.7160    -0.4820 h1         1 MGE       0.061200
    104 H1G2        -2.4070     1.0050    -0.8690 h1         1 MGE       0.061200
    105 H2G         -3.7220    -0.2650    -2.5750 h1         1 MGE       0.088700
    106 H3G1        -1.0610    -1.6160    -3.1480 h1         1 MGE       0.053200
    107 H3G2        -2.4210    -2.3940    -2.3270 h1         1 MGE       0.053200
    108 H1D         -2.4910    -3.9310    -3.7860 h2         1 MGE       0.072700
    109 H2D         -2.8260    -4.7910    -6.0880 h1         1 MGE       0.045700
    110 H4          -4.8720    -4.6780    -5.5660 ho         1 MGE       0.395000
    111 H3D         -3.4120    -3.2710    -7.8970 h1         1 MGE       0.030700
    112 H3          -4.1990    -1.3960    -7.3080 ho         1 MGE       0.403000
    113 H4D         -1.0330    -3.6920    -7.5970 h1         1 MGE       0.036700
    114 H2          -1.0980    -2.1810    -9.1270 ho         1 MGE       0.399000
    115 H5D         -1.1420    -1.3630    -5.6480 h1         1 MGE       0.106700
    116 H1           2.3180    -1.4860    -5.2390 ho         1 MGE       0.399000
    117 H6D1         0.9280    -1.4670    -7.0620 h1         1 MGE       0.030700
    118 H6D2         1.1980    -3.1160    -6.4830 h1         1 MGE       0.030700
    119 O5D          1.4030    -1.6350    -5.0640 oh         1 MGE      -0.599800
    120 C1B         -2.8870     1.1080    -4.5560 c          1 MGE       0.632100
@<TRIPOS>BOND
     1     1     2 1
     2     1    14 2
     3     1    31 1
     4     2     3 1
     5     2    47 1
     6     2    48 1
     7     3     4 1
     8     3    49 1
     9     3    50 1
    10     4     5 1
    11     4    51 1
    12     4    52 1
    13     5     6 1
    14     5    53 1
    15     5    54 1
    16     6     7 1
    17     6    55 1
    18     6    56 1
    19     7     8 1
    20     7    57 1
    21     7    58 1
    22     8     9 1
    23     8    59 1
    24     8    60 1
    25     9    10 1
    26     9    61 1
    27     9    62 1
    28    10    11 1
    29    10    63 1
    30    10    64 1
    31    11    12 1
    32    11    65 1
    33    11    66 1
    34    12    13 1
    35    12    67 1
    36    12    68 1
    37    13    69 1
    38    13    70 1
    39    13    71 1
    40   120    15 1
    41   120    30 2
    42   120    34 1
    43    15    16 1
    44    15    72 1
    45    15    73 1
    46    16    17 1
    47    16    74 1
    48    16    75 1
    49    17    18 1
    50    17    76 1
    51    17    77 1
    52    18    19 1
    53    18    78 1
    54    18    79 1
    55    19    20 1
    56    19    80 1
    57    19    81 1
    58    20    21 1
    59    20    82 1
    60    20    83 1
    61    21    22 1
    62    21    84 1
    63    21    85 1
    64    22    23 1
    65    22    86 1
    66    22    87 1
    67    23    24 1
    68    23    88 1
    69    23    89 1
    70    24    25 1
    71    24    90 1
    72    24    91 1
    73    25    26 1
    74    25    92 1
    75    25    93 1
    76    26    27 1
    77    26    94 1
    78    26    95 1
    79    27    28 1
    80    27    96 1
    81    27    97 1
    82    28    29 1
    83    28    98 1
    84    28    99 1
    85    29   100 1
    86    29   101 1
    87    29   102 1
    88    31    32 1
    89    32    33 1
    90    32   103 1
    91    32   104 1
    92    33    34 1
    93    33    35 1
    94    33   105 1
    95    35    36 1
    96    35   106 1
    97    35   107 1
    98    36    37 1
    99    37    38 1
   100    37    46 1
   101    37   108 1
   102    38    39 1
   103    38    40 1
   104    38   109 1
   105    39   110 1
   106    40    41 1
   107    40    42 1
   108    40   111 1
   109    41   112 1
   110    42    43 1
   111    42    44 1
   112    42   113 1
   113    43   114 1
   114    44    45 1
   115    44    46 1
   116    44   115 1
   117   119    45 1
   118   119   116 1
   119    45   117 1
   120    45   118 1
@<TRIPOS>SUBSTRUCTURE
     1 MGE         1 TEMP              0 ****  ****    0 ROOT
