@<TRIPOS>MOLECULE
MGH
   55    56     1     0     0
SMALL
bcc


@<TRIPOS>ATOM
      1 C01         0.8820   -0.9160   -1.5050 c3        1 MGH      0.122700
      2 O02         1.9810   -0.4090   -0.7260 os        1 MGH     -0.404900
      3 C03         2.3740   -1.1610    0.3260 c         1 MGH      0.612100
      4 O04         1.8060   -2.2210    0.6000 o         1 MGH     -0.529000
      5 C05         3.5710   -0.5730    1.0650 c3        1 MGH      0.080500
      6 C06         3.2880    0.8820    1.4620 c3        1 MGH     -0.100700
      7 C07         4.4890    1.5690    1.9720 cc        1 MGH      0.240600
      8 C08         4.7920    2.9370    1.8060 cd        1 MGH     -0.191600
      9 N09         5.9960    3.1500    2.4700 na        1 MGH     -0.297900
     10 C10         6.3920    1.9240    3.0110 cd        1 MGH      0.434400
     11 N11         5.5000    0.9520    2.7250 nc        1 MGH     -0.757000
     12 N12         3.9130   -1.4340    2.2470 n4        1 MGH     -0.662800
     13 C13         5.3610   -1.8430    2.3410 c         1 MGH      0.563100
     14 O14         6.0380   -1.8460    1.3270 o         1 MGH     -0.421100
     15 C15         5.8380   -2.2000    3.7510 c3        1 MGH      0.022000
     16 N16         5.2200   -3.3880    4.2800 n         1 MGH     -0.476800
     17 C17         6.0700   -4.5430    4.4270 c3        1 MGH     -0.015000
     18 C18         7.2250   -4.3680    5.4030 c         1 MGH      0.594100
     19 O19         7.7110   -3.2990    5.7680 o         1 MGH     -0.477000
     20 O20         7.8270   -5.4720    5.9160 oh        1 MGH     -0.543100
     21 C21         4.0330   -3.2460    5.0290 c         1 MGH      0.676100
     22 O22         3.3620   -2.2130    4.8290 o         1 MGH     -0.627100
     23 C23         3.5920   -4.3420    5.9660 c3        1 MGH     -0.143400
     24 C24         2.3760   -3.9130    6.7720 c3        1 MGH     -0.024100
     25 C25         1.9640   -4.9950    7.7070 ca        1 MGH     -0.110300
     26 C26         0.8900   -5.8330    7.3900 ca        1 MGH     -0.124000
     27 C27         0.4990   -6.8360    8.2760 ca        1 MGH     -0.122500
     28 C28         1.1770   -7.0080    9.4830 ca        1 MGH     -0.115000
     29 C29         2.2470   -6.1710    9.8050 ca        1 MGH     -0.122500
     30 C30         2.6400   -5.1680    8.9210 ca        1 MGH     -0.124000
     31 H101        0.7590   -0.1370   -2.2980 h1        1 MGH      0.073700
     32 H201        1.1550   -1.9090   -1.9360 h1        1 MGH      0.073700
     33 H301       -0.0250   -1.0030   -0.8610 h1        1 MGH      0.073700
     34 H05         4.4510   -0.5890    0.3450 hx        1 MGH      0.158700
     35 H106        2.9190    1.4100    0.5360 hc        1 MGH      0.096200
     36 H206        2.4650    0.9270    2.2270 hc        1 MGH      0.096200
     37 H08         4.2550    3.7310    1.2870 h4        1 MGH      0.199000
     38 HN09        6.4780    4.0100    2.5430 hn        1 MGH      0.325700
     39 H10         7.3170    1.7980    3.5890 h5        1 MGH      0.081100
     40 HN12        3.3410   -2.2960    2.2260 hn        1 MGH      0.487300
     41 H115        5.6320   -1.3060    4.4180 h1        1 MGH      0.133700
     42 H215        6.9610   -2.3300    3.6840 h1        1 MGH      0.133700
     43 H117        6.5290   -4.7790    3.4200 h1        1 MGH      0.096200
     44 H217        5.4490   -5.4300    4.7390 h1        1 MGH      0.096200
     45 H123        3.3410   -5.2580    5.3670 hc        1 MGH      0.084700
     46 H223        4.4320   -4.5970    6.6680 hc        1 MGH      0.084700
     47 H124        1.5370   -3.6560    6.0710 hc        1 MGH      0.068200
     48 H224        2.6210   -2.9790    7.3470 hc        1 MGH      0.068200
     49 H26         0.3450   -5.6960    6.4440 ha        1 MGH      0.131000
     50 H27        -0.3490   -7.4900    8.0240 ha        1 MGH      0.142000
     51 H28         0.8660   -7.7980   10.1830 ha        1 MGH      0.144000
     52 H29         2.7790   -6.3000   10.7590 ha        1 MGH      0.142000
     53 H30         3.4760   -4.5030    9.1820 ha        1 MGH      0.131000
     54 H122        3.6700   -0.9360    3.1240 hn        1 MGH      0.487300
     55 H161        7.4160   -6.2790    5.5720 ho        1 MGH      0.436000
@<TRIPOS>BOND
     1    1    2 1   
     2    1   31 1   
     3    1   32 1   
     4    1   33 1   
     5    2    3 1   
     6    3    4 2   
     7    3    5 1   
     8    5    6 1   
     9    5   12 1   
    10    5   34 1   
    11    6    7 1   
    12    6   35 1   
    13    6   36 1   
    14    7    8 2   
    15    7   11 1   
    16    8    9 1   
    17    8   37 1   
    18    9   10 1   
    19    9   38 1   
    20   10   11 2   
    21   10   39 1   
    22   12   13 1   
    23   12   40 1   
    24   12   54 1   
    25   13   14 2   
    26   13   15 1   
    27   15   16 1   
    28   15   41 1   
    29   15   42 1   
    30   16   17 1   
    31   16   21 1   
    32   17   18 1   
    33   17   43 1   
    34   17   44 1   
    35   18   19 2   
    36   18   20 1   
    37   20   55 1   
    38   21   22 2   
    39   21   23 1   
    40   23   24 1   
    41   23   45 1   
    42   23   46 1   
    43   24   25 1   
    44   24   47 1   
    45   24   48 1   
    46   25   26 ar  
    47   25   30 ar  
    48   26   27 ar  
    49   26   49 1   
    50   27   28 ar  
    51   27   50 1   
    52   28   29 ar  
    53   28   51 1   
    54   29   30 ar  
    55   29   52 1   
    56   30   53 1   
@<TRIPOS>SUBSTRUCTURE
     1 MGH         1 TEMP              0 ****  ****    0 ROOT
