@<TRIPOS>MOLECULE
MGI
   38    39     1     0     0
SMALL
bcc


@<TRIPOS>ATOM
      1 O2          0.1460    1.4010   -0.0860 o         1 MGI     -0.561000
      2 C1          0.7970    0.3520   -0.1610 c         1 MGI      0.661700
      3 O1          0.4580   -0.6600    0.6990 os        1 MGI     -0.413900
      4 C9         -0.6490   -0.4100    1.5660 c3        1 MGI      0.126700
      5 C2          1.9210    0.0370   -1.0490 ca        1 MGI     -0.201600
      6 C7          2.2150   -1.2970   -1.4070 ca        1 MGI      0.215100
      7 O3          1.3910   -2.2760   -0.9170 oh        1 MGI     -0.467100
      8 C6          3.2930   -1.6080   -2.2450 ca        1 MGI     -0.271000
      9 C3          2.7230    1.0730   -1.5660 ca        1 MGI      0.053700
     10 C8          2.4320    2.4890   -1.2380 c3        1 MGI     -0.069800
     11 C4          3.8040    0.7740   -2.3990 ca        1 MGI     -0.247000
     12 C5          4.0820   -0.5560   -2.7290 ca        1 MGI      0.203100
     13 O4          5.1430   -0.9560   -3.5290 os        1 MGI     -0.230200
     14 C10         5.9030    0.0590   -4.1070 ca        1 MGI      0.073100
     15 C15         7.0200    0.5550   -3.4230 ca        1 MGI     -0.128000
     16 C11         5.6260    0.4630   -5.4250 ca        1 MGI      0.112100
     17 O5          4.5180   -0.0460   -6.0490 oh        1 MGI     -0.473100
     18 C12         6.5110    1.3770   -6.0430 ca        1 MGI      0.049100
     19 O6          6.1900    1.7360   -7.3360 oh        1 MGI     -0.514100
     20 C13         7.6250    1.8690   -5.3630 ca        1 MGI     -0.170000
     21 C14         7.8810    1.4580   -4.0480 ca        1 MGI     -0.068300
     22 C16         9.0620    1.9920   -3.3310 c3        1 MGI     -0.052800
     23 H91        -0.4230    0.4560    2.2340 h1        1 MGI      0.048033
     24 H92        -0.7470   -1.3610    2.1450 h1        1 MGI      0.048033
     25 H93        -1.5660   -0.2000    0.9660 h1        1 MGI      0.048033
     26 H81         1.4440    2.7820   -1.6780 hc        1 MGI      0.061700
     27 H82         3.2230    3.1710   -1.6340 hc        1 MGI      0.061700
     28 H83         2.3570    2.6250   -0.1290 hc        1 MGI      0.061700
     29 H4          4.4310    1.5830   -2.8000 ha        1 MGI      0.153000
     30 H6          3.5210   -2.6450   -2.5250 ha        1 MGI      0.158000
     31 HO3         1.7160   -3.1320   -1.2390 ho        1 MGI      0.422000
     32 H15         7.2100    0.2160   -2.3930 ha        1 MGI      0.155000
     33 H161        9.2670    1.4100   -2.3990 hc        1 MGI      0.048700
     34 H162        8.8870    3.0600   -3.0460 hc        1 MGI      0.048700
     35 H163        9.9700    1.9480   -3.9820 hc        1 MGI      0.048700
     36 H13         8.3030    2.5790   -5.8580 ha        1 MGI      0.140000
     37 HO6         6.8800    2.3330   -7.6580 ho        1 MGI      0.433000
     38 HO5         4.4890    0.3170   -6.9490 ho        1 MGI      0.440000
@<TRIPOS>BOND
     1    1    2 2   
     2    2    3 1   
     3    2    5 1   
     4    3    4 1   
     5    4   23 1   
     6    4   24 1   
     7    4   25 1   
     8    5    6 ar  
     9    5    9 ar  
    10    6    7 1   
    11    6    8 ar  
    12    7   31 1   
    13    8   12 ar  
    14    8   30 1   
    15    9   10 1   
    16    9   11 ar  
    17   10   26 1   
    18   10   27 1   
    19   10   28 1   
    20   11   12 ar  
    21   11   29 1   
    22   12   13 1   
    23   13   14 1   
    24   14   15 ar  
    25   14   16 ar  
    26   15   21 ar  
    27   15   32 1   
    28   16   17 1   
    29   16   18 ar  
    30   17   38 1   
    31   18   19 1   
    32   18   20 ar  
    33   19   37 1   
    34   20   21 ar  
    35   20   36 1   
    36   21   22 1   
    37   22   33 1   
    38   22   34 1   
    39   22   35 1   
@<TRIPOS>SUBSTRUCTURE
     1 MGI         1 TEMP              0 ****  ****    0 ROOT
