@<TRIPOS>MOLECULE
molecule
   38    39     1     0     0
SMALL
bcc


@<TRIPOS>ATOM
      1 O2           0.0000     0.0000     0.0000 o          1 MGI      -0.537000
      2 C1           1.2150     0.0000     0.0000 c          1 MGI       0.663700
      3 O1           1.8900     0.0000     1.1670 os         1 MGI      -0.419900
      4 C9           1.0990     0.0000     2.3850 c3         1 MGI       0.137700
      5 C2           1.9510    -0.0070    -1.2740 ca         1 MGI      -0.141600
      6 C7           2.2980    -1.2250    -1.8810 ca         1 MGI       0.173100
      7 O3           1.9580    -2.4000    -1.2970 oh         1 MGI      -0.503100
      8 C6           2.9900    -1.2180    -3.0800 ca         1 MGI      -0.203000
      9 C3           2.3030     1.2000    -1.8890 ca         1 MGI      -0.010300
     10 C8           1.9280     2.5090    -1.2450 c3         1 MGI      -0.059800
     11 C4           2.9850     1.1910    -3.0720 ca         1 MGI      -0.176000
     12 C5           3.3370    -0.0130    -3.6740 ca         1 MGI       0.149100
     13 O4           4.0140    -0.0090    -4.8490 os         1 MGI      -0.234200
     14 C10          5.2960     0.4480    -4.8440 ca         1 MGI       0.126100
     15 C15          5.9140     0.7690    -3.6450 ca         1 MGI      -0.211000
     16 C11          5.9890     0.5880    -6.0410 ca         1 MGI       0.061100
     17 O5           5.3880     0.2700    -7.2190 oh         1 MGI      -0.498100
     18 C12          7.2980     1.0550    -6.0310 ca         1 MGI       0.121100
     19 O6           7.9810     1.1930    -7.1990 oh         1 MGI      -0.508100
     20 C13          7.9070     1.3780    -4.8280 ca         1 MGI      -0.192000
     21 C14          7.2160     1.2330    -3.6390 ca         1 MGI      -0.037300
     22 C16          7.8840     1.5820    -2.3350 c3         1 MGI      -0.048800
     23 H91          1.7590     0.0090     3.2440 h1         1 MGI       0.049700
     24 H92          0.4800    -0.8880     2.4140 h1         1 MGI       0.049700
     25 H93          0.4680     0.8810     2.4060 h1         1 MGI       0.049700
     26 H81          0.8580     2.5360    -1.0770 hc         1 MGI       0.056367
     27 H82          2.4440     2.6070    -0.2980 hc         1 MGI       0.056367
     28 H83          2.2110     3.3260    -1.8970 hc         1 MGI       0.056367
     29 H4           3.2570     2.1280    -3.5430 ha         1 MGI       0.154000
     30 H6           3.2630    -2.1540    -3.5530 ha         1 MGI       0.156000
     31 HO3          1.4570    -2.9200    -1.9040 ho         1 MGI       0.433000
     32 H15          5.3750     0.6570    -2.7120 ha         1 MGI       0.152000
     33 H161         7.7100     0.7900    -1.6170 hc         1 MGI       0.048033
     34 H162         7.4740     2.5100    -1.9560 hc         1 MGI       0.048033
     35 H163         8.9500     1.6960    -2.4940 hc         1 MGI       0.048033
     36 H13          8.9280     1.7420    -4.8190 ha         1 MGI       0.144000
     37 HO6          8.1250     2.1090    -7.3720 ho         1 MGI       0.427000
     38 HO5          5.5520    -0.6360    -7.4210 ho         1 MGI       0.422000
@<TRIPOS>BOND
     1     1     2 2
     2     2     3 1
     3     2     5 1
     4     3     4 1
     5     4    23 1
     6     4    24 1
     7     4    25 1
     8     5     9 ar
     9     5     6 ar
    10     6     8 ar
    11     6     7 1
    12     7    31 1
    13     8    12 ar
    14     8    30 1
    15     9    10 1
    16     9    11 ar
    17    10    26 1
    18    10    27 1
    19    10    28 1
    20    11    12 ar
    21    11    29 1
    22    12    13 1
    23    13    14 1
    24    14    15 ar
    25    14    16 ar
    26    15    21 ar
    27    15    32 1
    28    16    18 ar
    29    16    17 1
    30    17    38 1
    31    18    20 ar
    32    18    19 1
    33    19    37 1
    34    20    21 ar
    35    20    36 1
    36    21    22 1
    37    22    33 1
    38    22    34 1
    39    22    35 1
@<TRIPOS>SUBSTRUCTURE
     1 MGI         1 TEMP              0 ****  ****    0 ROOT
