@<TRIPOS>MOLECULE
molecule
   55    56     1     0     0
SMALL
bcc


@<TRIPOS>ATOM
      1 C10          0.0000     0.0000     0.0000 cc         1 MGJ       0.396400
      2 N12          0.4070     2.4350     3.6850 ns         1 MGJ      -0.574900
      3 C13         -0.3180     3.5620     3.5340 c          1 MGJ       0.674100
      4 C15          0.3640     4.8510     3.1590 c3         1 MGJ       0.080800
      5 C17         -0.0520     7.1340     2.4660 c3         1 MGJ       0.148800
      6 C20         -1.6710    10.2090     0.8580 ca         1 MGJ      -0.061300
      7 C21         -2.0950    11.2220     1.6980 ca         1 MGJ      -0.125500
      8 C22         -3.1070    12.0730     1.2970 ca         1 MGJ      -0.133000
      9 C24         -3.2720    10.9000    -0.7820 ca         1 MGJ      -0.133000
     10 C26         -1.2340     6.2110     4.3660 c3         1 MGJ       0.035800
     11 C03         -0.4100     1.1110     5.5470 c          1 MGJ       0.631100
     12 N02         -0.9980     0.0380     6.1140 ns         1 MGJ      -0.603900
     13 C01         -1.1470    -0.0300     7.5700 c3         1 MGJ       0.105300
     14 C05         -0.2570     1.1810     4.0490 c3         1 MGJ       0.054700
     15 C06          0.5880    -0.0010     3.5670 c3         1 MGJ      -0.099700
     16 C07          0.6390    -0.0000     2.0610 cd         1 MGJ       0.326600
     17 C08          1.7550     0.0000     1.3080 cc         1 MGJ      -0.276600
     18 N09          1.3500     0.0000     0.0000 na         1 MGJ      -0.301900
     19 N11         -0.4190    -0.0000     1.2360 nd         1 MGJ      -0.686000
     20 O14         -1.5190     3.5360     3.6990 o          1 MGJ      -0.599100
     21 N16         -0.6360     5.9220     3.0570 n3         1 MGJ      -0.705600
     22 C27         -0.1740     6.7440     5.2960 c          1 MGJ       0.866600
     23 O28         -0.5130     7.1830     6.5180 o          1 MGJ      -0.858800
     24 O29          0.9800     6.7760     4.9410 o          1 MGJ      -0.858800
     25 C18         -1.1720     8.0770     2.0230 c3         1 MGJ      -0.073400
     26 C19         -0.5680     9.2800     1.2950 c3         1 MGJ      -0.042100
     27 C23         -3.6960    11.9130     0.0570 ca         1 MGJ      -0.147000
     28 C25         -2.2650    10.0430    -0.3790 ca         1 MGJ      -0.125500
     29 H10         -0.6310     0.0000    -0.8800 h5         1 MGJ       0.062100
     30 HN12         1.4020     2.4620     3.5830 hn         1 MGJ       0.310500
     31 H15          0.8640     4.7320     2.2050 h1         1 MGJ       0.071700
     32 H15A         1.0930     5.1090     3.9190 h1         1 MGJ       0.071700
     33 H17          0.5690     7.6310     3.2020 h1         1 MGJ       0.048700
     34 H17A         0.5520     6.8630     1.6090 h1         1 MGJ       0.048700
     35 H21         -1.6340    11.3480     2.6700 ha         1 MGJ       0.134000
     36 H22         -3.4390    12.8670     1.9550 ha         1 MGJ       0.118500
     37 H24         -3.7350    10.7720    -1.7530 ha         1 MGJ       0.118500
     38 H26         -2.0170     6.9500     4.2510 h1         1 MGJ       0.064700
     39 H26A        -1.6530     5.3020     4.7800 h1         1 MGJ       0.064700
     40 HN02        -1.3680    -0.6920     5.5380 hn         1 MGJ       0.304500
     41 H01         -0.1730     0.0400     8.0370 h1         1 MGJ       0.036367
     42 H01A        -1.6110    -0.9700     7.8420 h1         1 MGJ       0.036367
     43 H01B        -1.7690     0.7900     7.9080 h1         1 MGJ       0.036367
     44 H05         -1.2340     1.1410     3.5830 h1         1 MGJ       0.110700
     45 H06          1.5920     0.0880     3.9630 hc         1 MGJ       0.051700
     46 H06A         0.1440    -0.9270     3.9130 hc         1 MGJ       0.051700
     47 H08          2.7770    -0.0000     1.6670 h4         1 MGJ       0.172000
     48 HN09         1.9440     0.0000    -0.8060 hn         1 MGJ       0.293700
     49 H18         -1.7210     8.4200     2.8920 hc         1 MGJ       0.050200
     50 H18A        -1.8430     7.5520     1.3550 hc         1 MGJ       0.050200
     51 H19          0.1040     9.8060     1.9630 hc         1 MGJ       0.045200
     52 H19A        -0.0180     8.9380     0.4260 hc         1 MGJ       0.045200
     53 H23         -4.4870    12.5820    -0.2580 ha         1 MGJ       0.115000
     54 H25         -1.9330     9.2500    -1.0380 ha         1 MGJ       0.134000
     55 O04         -0.0060     2.0190     6.2410 o          1 MGJ      -0.561100
@<TRIPOS>BOND
     1     1    18 1
     2     1    19 2
     3     1    29 1
     4     2     3 1
     5     2    14 1
     6     2    30 1
     7     3     4 1
     8     3    20 2
     9     4    21 1
    10     4    31 1
    11     4    32 1
    12     5    21 1
    13     5    25 1
    14     5    33 1
    15     5    34 1
    16     6     7 ar
    17     6    26 1
    18     6    28 ar
    19     7     8 ar
    20     7    35 1
    21     8    27 ar
    22     8    36 1
    23     9    27 ar
    24     9    28 ar
    25     9    37 1
    26    10    21 1
    27    10    22 1
    28    10    38 1
    29    10    39 1
    30    55    11 2
    31    11    12 1
    32    11    14 1
    33    12    13 1
    34    12    40 1
    35    13    41 1
    36    13    42 1
    37    13    43 1
    38    14    15 1
    39    14    44 1
    40    15    16 1
    41    15    45 1
    42    15    46 1
    43    16    17 2
    44    16    19 1
    45    17    18 1
    46    17    47 1
    47    18    48 1
    48    22    23 1
    49    22    24 1
    50    25    26 1
    51    25    49 1
    52    25    50 1
    53    26    51 1
    54    26    52 1
    55    27    53 1
    56    28    54 1
@<TRIPOS>SUBSTRUCTURE
     1 MGJ         1 TEMP              0 ****  ****    0 ROOT
