@<TRIPOS>MOLECULE
molecule
   54    55     1     0     0
SMALL
bcc


@<TRIPOS>ATOM
      1 C10          0.0000     0.0000     0.0000 cc         1 MGK       0.389400
      2 N12          2.8170    -1.9910     3.1860 ns         1 MGK      -0.577900
      3 C13          2.6440    -3.3230     3.2910 c          1 MGK       0.674100
      4 C15          1.8230    -3.8900     4.4210 c3         1 MGK       0.082800
      5 C17          0.8080    -5.9260     5.2490 c3         1 MGK       0.148800
      6 C20         -0.9080    -9.3480     5.3470 ca         1 MGK      -0.062300
      7 C21         -0.2230   -10.3900     5.9450 ca         1 MGK      -0.125500
      8 C22         -0.4990   -11.6960     5.5840 ca         1 MGK      -0.132500
      9 C24         -2.1370   -10.9170     4.0200 ca         1 MGK      -0.132500
     10 C26          3.1190    -5.9320     4.5270 c3         1 MGK       0.035800
     11 O29          4.8670    -5.8710     6.2700 o          1 MGK      -0.856800
     12 C27          3.6180    -5.5490     5.8960 c          1 MGK       0.863600
     13 O28          2.8950    -4.9530     6.6590 o          1 MGK      -0.856800
     14 N16          1.7850    -5.3550     4.3130 n3         1 MGK      -0.705600
     15 C18          0.5030    -7.3700     4.8480 c3         1 MGK      -0.073400
     16 C19         -0.6080    -7.9250     5.7420 c3         1 MGK      -0.042100
     17 C25         -1.8610    -9.6120     4.3820 ca         1 MGK      -0.125500
     18 C23         -1.4560   -11.9600     4.6220 ca         1 MGK      -0.147000
     19 O14          3.1490    -4.0670     2.4760 o          1 MGK      -0.599100
     20 C05          3.6160    -1.4410     2.0880 c3         1 MGK       0.085700
     21 C03          5.0740    -1.4550     2.4700 c          1 MGK       0.595100
     22 O04          5.4110    -1.8810     3.5500 o          1 MGK      -0.493000
     23 O02          5.9980    -0.9940     1.6130 os         1 MGK      -0.450900
     24 C01          7.3820    -1.0390     2.0480 c3         1 MGK       0.139700
     25 C06          3.1760    -0.0020     1.8090 c3         1 MGK      -0.011100
     26 C07          1.7550     0.0000     1.3080 cc         1 MGK      -0.231900
     27 N11          1.3510     0.0000     0.0000 na         1 MGK      -0.294900
     28 N09         -0.4180    -0.0000     1.2360 nd         1 MGK      -0.697000
     29 C08          0.6390    -0.0060     2.0620 cd         1 MGK       0.328200
     30 H10         -0.6310     0.0020    -0.8800 h5         1 MGK       0.059100
     31 HN12         2.4410    -1.3820     3.8850 hn         1 MGK       0.316500
     32 H15          0.8140    -3.4980     4.3660 h1         1 MGK       0.075200
     33 H15A         2.2680    -3.6090     5.3680 h1         1 MGK       0.075200
     34 H17          1.2150    -5.9080     6.2520 h1         1 MGK       0.051200
     35 H17A        -0.1050    -5.3430     5.2190 h1         1 MGK       0.051200
     36 H21          0.5270   -10.1830     6.6990 ha         1 MGK       0.134000
     37 H22          0.0360   -12.5120     6.0540 ha         1 MGK       0.119000
     38 H24         -2.8860   -11.1240     3.2660 ha         1 MGK       0.119000
     39 H26          3.8010    -5.5540     3.7750 h1         1 MGK       0.064200
     40 H26A         3.0620    -7.0110     4.4530 h1         1 MGK       0.064200
     41 H18          0.1820    -7.3980     3.8130 hc         1 MGK       0.048700
     42 H18A         1.3960    -7.9740     4.9640 hc         1 MGK       0.048700
     43 H19         -1.5000    -7.3220     5.6250 hc         1 MGK       0.046200
     44 H19A        -0.2870    -7.8970     6.7760 hc         1 MGK       0.046200
     45 H25         -2.3960    -8.7950     3.9120 ha         1 MGK       0.134000
     46 H23         -1.6720   -12.9830     4.3390 ha         1 MGK       0.115000
     47 H05          3.4710    -2.0420     1.1990 h1         1 MGK       0.103700
     48 H01          8.0140    -0.5980     1.2860 h1         1 MGK       0.046033
     49 H01A         7.6770    -2.0680     2.2100 h1         1 MGK       0.046033
     50 H01B         7.4890    -0.4820     2.9710 h1         1 MGK       0.046033
     51 H06          3.2390     0.5790     2.7210 hc         1 MGK       0.062700
     52 H06A         3.8240     0.4350     1.0580 hc         1 MGK       0.062700
     53 H08          0.6020    -0.0070     3.1440 h4         1 MGK       0.042100
     54 HN11         1.9450     0.0000    -0.8050 hn         1 MGK       0.295700
@<TRIPOS>BOND
     1    27     1 1
     2     1    28 2
     3     1    30 1
     4    20     2 1
     5     3     2 1
     6     2    31 1
     7     4     3 1
     8     3    19 2
     9     4    14 1
    10     4    32 1
    11     4    33 1
    12    15     5 1
    13    14     5 1
    14     5    34 1
    15     5    35 1
    16    17     6 ar
    17     6    16 1
    18     6     7 ar
    19     8     7 ar
    20     7    36 1
    21    18     8 ar
    22     8    37 1
    23     9    17 ar
    24     9    18 ar
    25     9    38 1
    26    14    10 1
    27    10    12 1
    28    10    39 1
    29    10    40 1
    30    12    11 1
    31    12    13 1
    32    15    16 1
    33    15    41 1
    34    15    42 1
    35    16    43 1
    36    16    44 1
    37    17    45 1
    38    18    46 1
    39    25    20 1
    40    20    21 1
    41    20    47 1
    42    23    21 1
    43    21    22 2
    44    23    24 1
    45    24    48 1
    46    24    49 1
    47    24    50 1
    48    25    26 1
    49    25    51 1
    50    25    52 1
    51    27    26 1
    52    26    29 2
    53    29    28 1
    54    29    53 1
    55    27    54 1
@<TRIPOS>SUBSTRUCTURE
     1 MGK         1 TEMP              0 ****  ****    0 ROOT
