@<TRIPOS>MOLECULE
molecule
   63    62     1     0     0
SMALL
bcc


@<TRIPOS>ATOM
      1 C20          0.0000     0.0000     0.0000 c3         1 MGM      -0.044900
      2 C19          2.2600    -0.0020    -1.3050 c3         1 MGM      -0.044900
      3 C18          1.5070     0.0000     0.0000 c2         1 MGM      -0.165400
      4 C17          2.1620     0.0000     1.1350 c2         1 MGM      -0.168200
      5 C16          3.6570     0.1930     1.1410 c3         1 MGM      -0.045200
      6 C14          6.3800     0.6630     3.0950 c3         1 MGM      -0.085900
      7 C13          5.5200     1.4730     2.1580 c2         1 MGM      -0.132400
      8 C15          4.0260     1.2800     2.1510 c3         1 MGM      -0.000200
      9 C12          6.0740     2.3410     1.3500 c2         1 MGM      -0.513200
     10 C11          7.5730     2.4170     1.2340 c3         1 MGM      -0.042200
     11 C9           7.9760     2.3530    -0.2400 c3         1 MGM      -0.008200
     12 C8           9.4760     2.4280    -0.3570 c2         1 MGM      -0.127400
     13 C10         10.1570     3.7660    -0.4890 c3         1 MGM      -0.057900
     14 C7          10.1900     1.3290    -0.3420 c2         1 MGM      -0.196200
     15 C6          11.6920     1.4080    -0.2570 c3         1 MGM      -0.049200
     16 C5          12.3050     0.8300    -1.5340 c3         1 MGM       0.138800
     17 N3          13.7700     0.9070    -1.4520 n3         1 MGM      -0.624600
     18 C4          14.1800    -0.0010    -0.3730 c3         1 MGM       0.122100
     19 C2          14.2920     0.3400    -2.7020 c3         1 MGM       0.127800
     20 C1          14.1990     1.3850    -3.8150 c3         1 MGM       0.168400
     21 O1          15.0410     2.4950    -3.4970 os         1 MGM      -0.537200
     22 PA          14.8950     3.5500    -4.7030 p5         1 MGM       1.256800
     23 O1A         15.3580     2.8580    -6.0810 o          1 MGM      -0.803000
     24 O3A         15.8230     4.8330    -4.4100 os         1 MGM      -0.645800
     25 O2A         13.4840     3.9780    -4.8160 o          1 MGM      -0.803000
     26 PB          15.6290     5.8410    -5.6500 p5         1 MGM       1.192900
     27 O1B         16.5330     7.1530    -5.4200 o          1 MGM      -0.784500
     28 O2B         16.0800     5.1110    -7.0110 o          1 MGM      -0.784500
     29 O3B         14.2060     6.2330    -5.7480 o          1 MGM      -0.784500
     30 H201        -0.3610     0.8660     0.5420 hc         1 MGM       0.034033
     31 H202        -0.3610     0.0370    -1.0210 hc         1 MGM       0.034033
     32 H203        -0.3610    -0.9020     0.4790 hc         1 MGM       0.034033
     33 H191         3.0460    -0.7470    -1.2680 hc         1 MGM       0.034033
     34 H192         1.5790    -0.2360    -2.1150 hc         1 MGM       0.034033
     35 H193         2.6970     0.9750    -1.4720 hc         1 MGM       0.034033
     36 H17          1.6170    -0.0010     2.0710 ha         1 MGM       0.104000
     37 H161         4.1390    -0.7370     1.4190 hc         1 MGM       0.054700
     38 H162         3.9870     0.4900     0.1530 hc         1 MGM       0.054700
     39 H141         6.9740    -0.0400     2.5240 hc         1 MGM       0.017700
     40 H142         5.7480     0.1220     3.7880 hc         1 MGM       0.017700
     41 H143         7.0360     1.3260     3.6470 hc         1 MGM       0.017700
     42 H151         3.6960     0.9830     3.1390 hc         1 MGM       0.025200
     43 H152         3.5440     2.2100     1.8740 hc         1 MGM       0.025200
     44 H12          6.6600     2.9160     2.0570 ha         1 MGM       0.222000
     45 H111         7.9220     3.3480     1.6640 hc         1 MGM       0.006200
     46 H112         8.0190     1.5850     1.7660 hc         1 MGM       0.006200
     47 HC91         7.6260     1.4220    -0.6700 hc         1 MGM       0.048700
     48 HC92         7.5300     3.1850    -0.7720 hc         1 MGM       0.048700
     49 H101        10.7550     3.9560     0.3950 hc         1 MGM       0.049367
     50 H102        10.7970     3.7610    -1.3630 hc         1 MGM       0.049367
     51 H103         9.4100     4.5430    -0.5930 hc         1 MGM       0.049367
     52 HC7          9.6970     0.3690    -0.2460 ha         1 MGM       0.102000
     53 HC61        12.0360     0.8380     0.5980 hc         1 MGM       0.047700
     54 HC62        11.9940     2.4420    -0.1470 hc         1 MGM       0.047700
     55 HC51        12.0030    -0.2040    -1.6430 h1         1 MGM       0.042200
     56 HC52        11.9610     1.3990    -2.3890 h1         1 MGM       0.042200
     57 HC41        14.0820     0.5040     0.5810 h1         1 MGM       0.012700
     58 HC42        13.5480    -0.8810    -0.3820 h1         1 MGM       0.012700
     59 HC43        15.2110    -0.2960    -0.5210 h1         1 MGM       0.012700
     60 HC21        15.3270     0.0520    -2.5630 h1         1 MGM       0.013200
     61 HC22        13.7090    -0.5310    -2.9750 h1         1 MGM       0.013200
     62 HC11        13.1750     1.7240    -3.9070 h1         1 MGM       0.049200
     63 HC12        14.5200     0.9450    -4.7510 h1         1 MGM       0.049200
@<TRIPOS>BOND
     1     1     3 1
     2     1    30 1
     3     1    31 1
     4     1    32 1
     5     2     3 1
     6     2    33 1
     7     2    34 1
     8     2    35 1
     9     3     4 2
    10     4     5 1
    11     4    36 1
    12     5     8 1
    13     5    37 1
    14     5    38 1
    15     6     7 1
    16     6    39 1
    17     6    40 1
    18     6    41 1
    19     7     8 1
    20     7     9 2
    21     8    42 1
    22     8    43 1
    23     9    10 1
    24     9    44 1
    25    10    11 1
    26    10    45 1
    27    10    46 1
    28    11    12 1
    29    11    47 1
    30    11    48 1
    31    12    13 1
    32    12    14 2
    33    13    49 1
    34    13    50 1
    35    13    51 1
    36    14    15 1
    37    14    52 1
    38    15    16 1
    39    15    53 1
    40    15    54 1
    41    16    17 1
    42    16    55 1
    43    16    56 1
    44    17    18 1
    45    17    19 1
    46    18    57 1
    47    18    58 1
    48    18    59 1
    49    19    20 1
    50    19    60 1
    51    19    61 1
    52    20    21 1
    53    20    62 1
    54    20    63 1
    55    21    22 1
    56    22    23 1
    57    22    24 1
    58    22    25 1
    59    24    26 1
    60    26    27 1
    61    26    28 1
    62    26    29 1
@<TRIPOS>SUBSTRUCTURE
     1 MGM         1 TEMP              0 ****  ****    0 ROOT
