@<TRIPOS>MOLECULE
molecule
   49    51     1     0     0
SMALL
bcc


@<TRIPOS>ATOM
      1 PA           0.0000     0.0000     0.0000 p5         1 MGP       1.429800
      2 O1A          1.6100     0.0000     0.0000 o          1 MGP      -0.827500
      3 O2A         -0.4940     0.0000     1.3960 o          1 MGP      -0.827500
      4 O3A         -0.5370     1.3140    -0.7590 os         1 MGP      -0.718800
      5 O5'         -0.5370    -1.3150    -0.7590 os         1 MGP      -0.596200
      6 PB          -0.6280     2.8730    -0.3680 p5         1 MGP       1.554800
      7 O1B          0.8110     3.5640    -0.5780 o          1 MGP      -0.636000
      8 O2B         -1.0350     3.0040     1.0490 o          1 MGP      -0.636000
      9 O3B         -1.7150     3.6000    -1.3070 os         1 MGP      -0.700800
     10 PC          -2.4850     5.0130    -1.2410 p5         1 MGP       1.251900
     11 O1C         -3.8040     4.9490    -2.1600 o          1 MGP      -0.500833
     12 O2C         -1.5120     6.1790    -1.7770 o          1 MGP      -0.500833
     13 O3C         -2.8720     5.2980     0.1580 o          1 MGP      -0.500833
     14 C5'         -0.3180    -2.6400    -0.2690 c3         1 MGP       0.234400
     15 C4'         -0.9560    -3.6490    -1.2260 c3         1 MGP       0.117100
     16 O4'         -0.2680    -3.6280    -2.4880 os         1 MGP      -0.390600
     17 C3'         -0.8200    -5.0730    -0.6530 c3         1 MGP       0.081100
     18 O3'         -2.1080    -5.6560    -0.4520 oh         1 MGP      -0.583800
     19 C2'         -0.0380    -5.8460    -1.7420 c3         1 MGP       0.085100
     20 O2'         -0.5710    -7.1610    -1.9160 oh         1 MGP      -0.570800
     21 C1'         -0.2890    -4.9770    -3.0010 c3         1 MGP       0.273800
     22 N9           0.7810    -5.1720    -3.9830 na         1 MGP      -0.107100
     23 C8           1.9340    -4.4490    -4.0740 cc         1 MGP      -0.071600
     24 N7           2.6570    -4.8930    -5.0620 na         1 MGP       0.109900
     25 CM7          3.9620    -4.3610    -5.4610 c3         1 MGP       0.025600
     26 C5           2.0120    -5.9240    -5.6600 cc         1 MGP      -0.477900
     27 C6           2.3110    -6.7700    -6.7540 c          1 MGP       0.808100
     28 O6           3.3500    -6.6400    -7.3780 o          1 MGP      -0.747500
     29 N1           1.4150    -7.7240    -7.0910 ns         1 MGP      -0.467400
     30 C2           0.2560    -7.8590    -6.3860 cc         1 MGP      -0.024200
     31 N2          -0.6350    -8.8370    -6.7490 nz         1 MGP      -0.591600
     32 N3          -0.0320    -7.0800    -5.3680 nd         1 MGP      -0.638100
     33 C4           0.8080    -6.1160    -4.9740 cd         1 MGP       0.189100
     34 H5'          0.7470    -2.8290    -0.2020 h1         1 MGP       0.034700
     35 H5'A        -0.7650    -2.7400     0.7130 h1         1 MGP       0.034700
     36 H4'         -2.0030    -3.4120    -1.3750 h1         1 MGP       0.082700
     37 H3'         -0.2580    -5.0540     0.2730 h1         1 MGP       0.048700
     38 HO3'        -2.2240    -5.8550     0.4620 ho         1 MGP       0.396000
     39 H2'          1.0190    -5.8800    -1.5040 h1         1 MGP       0.053700
     40 HO2'        -0.0350    -7.7820    -1.4500 ho         1 MGP       0.389000
     41 H1'         -1.2560    -5.2050    -3.4320 h2         1 MGP       0.101700
     42 H8           2.2080    -3.6280    -3.4230 h5         1 MGP       0.230000
     43 HM7          4.2370    -3.5470    -4.8030 h1         1 MGP       0.064033
     44 HM7A         3.9070    -3.9990    -6.4810 h1         1 MGP       0.064033
     45 HM7B         4.7060    -5.1460    -5.3960 h1         1 MGP       0.064033
     46 HN1          1.6030    -8.3330    -7.8620 hn         1 MGP       0.282500
     47 HN2         -0.8590    -8.7410    -7.7200 hn         1 MGP       0.368467
     48 HN2A        -1.4690    -8.7480    -6.2030 hn         1 MGP       0.368467
     49 H23         -0.2260    -9.7370    -6.5890 hn         1 MGP       0.368467
@<TRIPOS>BOND
     1     1     2 1
     2     1     3 1
     3     1     4 1
     4     1     5 1
     5     4     6 1
     6     5    14 1
     7     6     7 1
     8     6     8 1
     9     6     9 1
    10     9    10 1
    11    10    11 1
    12    10    12 1
    13    10    13 1
    14    14    15 1
    15    14    34 1
    16    14    35 1
    17    15    16 1
    18    15    17 1
    19    15    36 1
    20    16    21 1
    21    17    18 1
    22    17    19 1
    23    17    37 1
    24    18    38 1
    25    19    20 1
    26    19    21 1
    27    19    39 1
    28    20    40 1
    29    21    22 1
    30    21    41 1
    31    22    23 2
    32    22    33 1
    33    23    24 1
    34    23    42 1
    35    24    25 1
    36    24    26 1
    37    25    43 1
    38    25    44 1
    39    25    45 1
    40    26    27 1
    41    26    33 2
    42    27    28 2
    43    27    29 1
    44    29    30 1
    45    29    46 1
    46    30    31 1
    47    30    32 2
    48    31    47 1
    49    31    48 1
    50    32    33 1
    51    49    31 1
@<TRIPOS>SUBSTRUCTURE
     1 MGP         1 TEMP              0 ****  ****    0 ROOT
