@<TRIPOS>MOLECULE
molecule
   50    52     1     0     0
SMALL
bcc


@<TRIPOS>ATOM
      1 C1           0.0000     0.0000     0.0000 ce         1 MGR       0.334600
      2 C2           1.4720     0.0000     0.0000 ca         1 MGR      -0.150800
      3 C3           2.1760     0.0000     1.2100 ca         1 MGR      -0.093500
      4 C4           3.5530     0.0000     1.2020 ca         1 MGR      -0.120000
      5 C5           4.2420    -0.0000     0.0010 ca         1 MGR      -0.087000
      6 C6           3.5540    -0.0000    -1.2010 ca         1 MGR      -0.120000
      7 C7           2.1760    -0.0070    -1.2100 ca         1 MGR      -0.093500
      8 C8          -0.7090    -1.1140    -0.5190 cd         1 MGR      -0.231000
      9 C9          -0.6150    -1.4340    -1.8860 cd         1 MGR       0.003000
     10 C10         -1.2960    -2.5030    -2.3810 cc         1 MGR      -0.234500
     11 C11         -2.0910    -3.2860    -1.5300 cc         1 MGR       0.251200
     12 C12         -2.1900    -2.9640    -0.1670 cc         1 MGR      -0.234500
     13 C13         -1.5070    -1.9000     0.3330 cd         1 MGR       0.003000
     14 C14         -0.7090     1.1130     0.5180 ca         1 MGR      -0.242800
     15 C15         -0.0060     2.2180     1.0320 ca         1 MGR       0.003000
     16 C16         -0.6890     3.2850     1.5290 ca         1 MGR      -0.234500
     17 C17         -2.0920     3.2850     1.5280 ca         1 MGR       0.278100
     18 C18         -2.7950     2.1840     1.0150 ca         1 MGR      -0.234500
     19 C19         -2.1160     1.1160     0.5130 ca         1 MGR       0.003000
     20 C22         -2.6730    -4.6860    -3.4500 c3         1 MGR       0.027600
     21 C23         -3.6010    -5.1710    -1.1400 c3         1 MGR       0.027600
     22 C24         -2.0460     5.4430     2.6800 c3         1 MGR       0.205100
     23 C25         -4.2310     4.4110     1.9060 c3         1 MGR       0.205100
     24 N2          -2.7710    -4.3530    -2.0270 nh         1 MGR      -0.276100
     25 N3          -2.7730     4.3510     2.0260 nh         1 MGR      -0.658000
     26 H31          1.6380     0.0000     2.1510 ha         1 MGR       0.140000
     27 H41          4.0990     0.0000     2.1380 ha         1 MGR       0.152000
     28 H51          5.3260     0.0020     0.0010 ha         1 MGR       0.152000
     29 H61          4.1000    -0.0030    -2.1360 ha         1 MGR       0.152000
     30 H71          1.6380    -0.0070    -2.1510 ha         1 MGR       0.140000
     31 H91         -0.0010    -0.8300    -2.5430 ha         1 MGR       0.152250
     32 H101        -1.2220    -2.7510    -3.4330 ha         1 MGR       0.157000
     33 H121        -2.8050    -3.5690     0.4890 ha         1 MGR       0.157000
     34 H131        -1.5830    -1.6520     1.3850 ha         1 MGR       0.152250
     35 H151         1.0770     2.2190     1.0340 ha         1 MGR       0.152250
     36 H161        -0.1480     4.1360     1.9260 ha         1 MGR       0.157000
     37 H181        -3.8780     2.1860     1.0140 ha         1 MGR       0.157000
     38 H191        -2.6590     0.2660     0.1170 ha         1 MGR       0.152250
     39 H221        -3.2820    -5.5570    -3.6600 h1         1 MGR       0.058283
     40 H222        -3.0240    -3.8490    -4.0420 h1         1 MGR       0.058283
     41 H223        -1.6410    -4.8980    -3.7020 h1         1 MGR       0.058283
     42 H231        -2.9860    -5.5890    -0.3520 h1         1 MGR       0.058283
     43 H232        -4.3780    -4.5550    -0.7020 h1         1 MGR       0.058283
     44 H233        -4.0550    -5.9740    -1.7080 h1         1 MGR       0.058283
     45 H241        -2.7540     6.1550     3.0870 h1         1 MGR       0.058283
     46 H242        -1.4370     5.0420     3.4810 h1         1 MGR       0.058283
     47 H243        -1.4100     5.9380     1.9560 h1         1 MGR       0.058283
     48 H251        -4.5850     5.3660     2.2750 h1         1 MGR       0.058283
     49 H252        -4.5130     4.2970     0.8660 h1         1 MGR       0.058283
     50 H253        -4.6740     3.6120     2.4890 h1         1 MGR       0.058283
@<TRIPOS>BOND
     1     1     2 1
     2     1     8 2
     3     1    14 1
     4     2     3 ar
     5     2     7 ar
     6     3     4 ar
     7     3    26 1
     8     4     5 ar
     9     4    27 1
    10     5     6 ar
    11     5    28 1
    12     6     7 ar
    13     6    29 1
    14     7    30 1
    15     8     9 1
    16     8    13 1
    17     9    10 2
    18     9    31 1
    19    10    11 1
    20    10    32 1
    21    11    12 1
    22    11    24 2
    23    12    13 2
    24    12    33 1
    25    13    34 1
    26    14    15 1
    27    14    19 2
    28    15    16 2
    29    15    35 1
    30    16    17 1
    31    16    36 1
    32    17    18 2
    33    17    25 1
    34    18    19 1
    35    18    37 1
    36    19    38 1
    37    20    24 1
    38    20    39 1
    39    20    40 1
    40    20    41 1
    41    21    24 1
    42    21    42 1
    43    21    43 1
    44    21    44 1
    45    22    25 1
    46    22    45 1
    47    22    46 1
    48    22    47 1
    49    23    25 1
    50    23    48 1
    51    23    49 1
    52    23    50 1
@<TRIPOS>SUBSTRUCTURE
     1 MGR         1 TEMP              0 ****  ****    0 ROOT
