@<TRIPOS>MOLECULE
molecule
   43    43     1     0     0
SMALL
bcc


@<TRIPOS>ATOM
      1 C1           0.0000     0.0000     0.0000 c3         1 MGS       0.286900
      2 O1          -0.4750    -1.1530     0.6980 os         1 MGS      -0.437600
      3 C7          -1.9020    -1.0980     0.6620 c3         1 MGS       0.109700
      4 C2           1.5300     0.0000     0.0000 c3         1 MGS       0.092100
      5 O2           2.0100     1.1650    -0.6710 os         1 MGS      -0.363600
      6 C8           2.1560     0.8170    -2.0490 c3         1 MGS       0.110700
      7 C3           2.0310     0.0000     1.4480 c3         1 MGS       0.141100
      8 O3           3.4510     0.1500     1.4670 oh         1 MGS      -0.580800
      9 C4           1.3800     1.1700     2.1910 c3         1 MGS       0.096700
     10 N4           1.7230     1.1040     3.6120 ns         1 MGS      -0.576900
     11 C9           1.8060     2.2340     4.3410 c          1 MGS       0.644100
     12 O9           1.5960     3.3080     3.8180 o          1 MGS      -0.574100
     13 C5          -0.1390     1.0830     2.0260 c3         1 MGS       0.111100
     14 O5          -0.4820     1.1770     0.6450 os         1 MGS      -0.396600
     15 C6          -0.8000     2.2300     2.7930 c3         1 MGS      -0.086100
     16 O12          5.1820     0.8460     7.6030 oh         1 MGS      -0.609800
     17 C11          3.5360     1.5190     5.9650 c3         1 MGS      -0.086400
     18 C10          2.1590     2.1640     5.8030 c3         1 MGS       0.077100
     19 O10          2.1840     3.4840     6.3510 oh         1 MGS      -0.567800
     20 HC1         -0.3580    -0.0200    -1.0220 h2         1 MGS       0.076700
     21 HC71        -2.2910    -1.1330     1.6720 h1         1 MGS       0.041367
     22 HC72        -2.2170    -0.1770     0.1850 h1         1 MGS       0.041367
     23 HC73        -2.2810    -1.9430     0.0990 h1         1 MGS       0.041367
     24 HC2          1.8900    -0.8880    -0.5050 h1         1 MGS       0.054700
     25 HC81         2.7810    -0.0640    -2.1350 h1         1 MGS       0.033033
     26 HC82         1.1810     0.6110    -2.4750 h1         1 MGS       0.033033
     27 HC83         2.6160     1.6400    -2.5830 h1         1 MGS       0.033033
     28 HC3          1.7530    -0.9310     1.9260 h1         1 MGS       0.047700
     29 HO3          3.8580    -0.7010     1.4540 ho         1 MGS       0.398000
     30 HC4          1.7340     2.1050     1.7720 h1         1 MGS       0.123700
     31 HN4          1.8830     0.2160     4.0460 hn         1 MGS       0.309500
     32 HC5         -0.4870     0.1350     2.4170 h1         1 MGS       0.047700
     33 HC61        -1.8370     2.3140     2.4930 hc         1 MGS       0.051700
     34 HC62        -0.2840     3.1570     2.5710 hc         1 MGS       0.051700
     35 HC63        -0.7450     2.0320     3.8560 hc         1 MGS       0.051700
     36 H121         3.1500     0.8400     7.9500 h1         1 MGS       0.022700
     37 H122         3.9060     2.4380     7.8920 h1         1 MGS       0.022700
     38 HO12         5.4130     0.8230     8.5160 ho         1 MGS       0.404000
     39 H112         3.5180     0.5180     5.5510 hc         1 MGS       0.070200
     40 HC10         1.4190     1.5700     6.3250 h1         1 MGS       0.039700
     41 HO10         1.4920     3.5740     6.9860 ho         1 MGS       0.403000
     42 H111         4.2770     2.1120     5.4430 hc         1 MGS       0.070200
     43 C12          3.8950     1.4480     7.4510 c3         1 MGS       0.141400
@<TRIPOS>BOND
     1     1     2 1
     2     1     4 1
     3     1    14 1
     4     1    20 1
     5     2     3 1
     6     3    21 1
     7     3    22 1
     8     3    23 1
     9     4     5 1
    10     4     7 1
    11     4    24 1
    12     5     6 1
    13     6    25 1
    14     6    26 1
    15     6    27 1
    16     7     8 1
    17     7     9 1
    18     7    28 1
    19     8    29 1
    20     9    10 1
    21     9    13 1
    22     9    30 1
    23    10    11 1
    24    10    31 1
    25    11    12 2
    26    11    18 1
    27    13    14 1
    28    13    15 1
    29    13    32 1
    30    15    33 1
    31    15    34 1
    32    15    35 1
    33    43    16 1
    34    43    17 1
    35    43    36 1
    36    43    37 1
    37    16    38 1
    38    17    18 1
    39    17    42 1
    40    17    39 1
    41    18    19 1
    42    18    40 1
    43    19    41 1
@<TRIPOS>SUBSTRUCTURE
     1 MGS         1 TEMP              0 ****  ****    0 ROOT
