@<TRIPOS>MOLECULE
molecule
   50    52     1     0     0
SMALL
bcc


@<TRIPOS>ATOM
      1 PG           0.0000     0.0000     0.0000 p5         1 MGT       1.153900
      2 O1G          1.6100     0.0000     0.0000 o          1 MGT      -0.634833
      3 O2G         -0.5360     0.0000     1.5170 o          1 MGT      -0.634833
      4 O3G         -0.4920    -1.2080    -0.6980 o          1 MGT      -0.634833
      5 O3B         -0.5370     1.3150    -0.7600 os         1 MGT      -0.620800
      6 PB          -2.1440     1.2500    -0.7220 p5         1 MGT       1.297800
      7 O1B         -2.6450     1.2280     0.8080 o          1 MGT      -0.563000
      8 O2B         -2.6050     0.0230    -1.4090 o          1 MGT      -0.563000
      9 O3A         -2.7510     2.5410    -1.4680 os         1 MGT      -0.628800
     10 PA          -4.3540     2.4110    -1.3930 p5         1 MGT       1.265800
     11 O1A         -4.8180     2.3700     0.1480 o          1 MGT      -0.778500
     12 O2A         -4.7800     1.1660    -2.0680 o          1 MGT      -0.778500
     13 O5'         -5.0300     3.6760    -2.1240 os         1 MGT      -0.529200
     14 C5'         -6.4440     3.5040    -2.0240 c3         1 MGT       0.168400
     15 C4'         -7.1510     4.6790    -2.7030 c3         1 MGT       0.130100
     16 O4'         -6.8090     4.7290    -4.1040 os         1 MGT      -0.361600
     17 C3'         -8.6810     4.4780    -2.6760 c3         1 MGT       0.094100
     18 O3'         -9.2650     5.2140    -1.6000 oh         1 MGT      -0.592800
     19 C2'         -9.1570     5.0380    -4.0380 c3         1 MGT       0.074100
     20 O2'        -10.0520     6.1340    -3.8430 oh         1 MGT      -0.597800
     21 C1'         -7.8570     5.5060    -4.7240 c3         1 MGT       0.462300
     22 N9          -7.9110     5.2340    -6.1620 nh         1 MGT      -0.730400
     23 C8          -7.7880     6.2270    -7.2360 c3         1 MGT       0.597000
     24 N7          -7.9070     5.4710    -8.4890 nh         1 MGT      -0.752400
     25 CM7         -7.8500     6.0150    -9.8480 c3         1 MGT       0.298100
     26 C5          -8.0940     4.1180    -8.1310 cc         1 MGT      -0.277200
     27 C6          -8.2610     2.9690    -8.9160 c          1 MGT       0.759700
     28 O6          -8.2700     3.0440   -10.1350 o          1 MGT      -0.795500
     29 N1          -8.4120     1.7770    -8.3010 ns         1 MGT      -0.479400
     30 C2          -8.4000     1.7070    -6.9410 cc         1 MGT       0.092800
     31 N2          -8.5550     0.4870    -6.3320 nz         1 MGT      -0.620600
     32 N3          -8.2480     2.7800    -6.1990 nd         1 MGT      -0.680300
     33 C4          -8.0880     3.9940    -6.7510 cd         1 MGT       0.378600
     34 H5'1        -6.7300     2.5800    -2.5120 h1         1 MGT       0.057200
     35 H5'2        -6.7300     3.4650    -0.9800 h1         1 MGT       0.057200
     36 H4'         -6.8880     5.6120    -2.2200 h1         1 MGT       0.056700
     37 H3'         -8.9220     3.4240    -2.5970 h1         1 MGT       0.051700
     38 HO3'        -9.8280     4.6460    -1.1000 ho         1 MGT       0.384000
     39 H2'         -9.6290     4.2560    -4.6210 h1         1 MGT       0.074700
     40 HO2'       -10.9020     5.9110    -4.1880 ho         1 MGT       0.381000
     41 H1'         -7.6970     6.5620    -4.5410 h2         1 MGT       0.052700
     42 H81         -8.5850     6.9560    -7.1630 h2         1 MGT      -0.009300
     43 H82         -6.8210     6.7130    -7.1850 h2         1 MGT      -0.009300
     44 HM71        -8.7810     5.8050   -10.3610 h1         1 MGT       0.005700
     45 HM72        -7.6970     7.0860    -9.8020 h1         1 MGT       0.005700
     46 HM73        -7.0300     5.5560   -10.3870 h1         1 MGT       0.005700
     47 HN1         -8.5320     0.9460    -8.8440 hn         1 MGT       0.270500
     48 HN21        -9.2060    -0.0660    -6.8540 hn         1 MGT       0.365800
     49 HN22        -7.6720     0.0180    -6.2960 hn         1 MGT       0.365800
     50 H23         -8.9010     0.6200    -5.4030 hn         1 MGT       0.365800
@<TRIPOS>BOND
     1     1     2 1
     2     1     3 1
     3     1     4 1
     4     1     5 1
     5     5     6 1
     6     6     7 1
     7     6     8 1
     8     6     9 1
     9     9    10 1
    10    10    11 1
    11    10    12 1
    12    10    13 1
    13    13    14 1
    14    14    15 1
    15    14    34 1
    16    14    35 1
    17    15    16 1
    18    15    17 1
    19    15    36 1
    20    16    21 1
    21    17    18 1
    22    17    19 1
    23    17    37 1
    24    18    38 1
    25    19    20 1
    26    19    21 1
    27    19    39 1
    28    20    40 1
    29    21    22 1
    30    21    41 1
    31    22    23 1
    32    22    33 1
    33    23    24 1
    34    23    42 1
    35    23    43 1
    36    24    25 1
    37    24    26 1
    38    25    44 1
    39    25    45 1
    40    25    46 1
    41    26    27 1
    42    26    33 2
    43    27    28 2
    44    27    29 1
    45    29    30 1
    46    29    47 1
    47    30    31 1
    48    30    32 2
    49    31    48 1
    50    31    49 1
    51    32    33 1
    52    50    31 1
@<TRIPOS>SUBSTRUCTURE
     1 MGT         1 TEMP              0 ****  ****    0 ROOT
