@<TRIPOS>MOLECULE
MGW
   51    52     1     0     0
SMALL
bcc


@<TRIPOS>ATOM
      1 C10          0.0000     0.0000     0.0000 cc         1 MGW       0.208400
      2 N12          2.1390     1.9850     3.6890 ns         1 MGW      -0.194900
      3 C13          2.3110     3.3150     3.5570 c          1 MGW       0.596100
      4 C15          3.6510     3.8630     3.1400 c3         1 MGW       0.045800
      5 C17          4.9170     5.9140     2.9010 c3         1 MGW       0.078800
      6 C20          7.4790     7.8810     3.7480 ca         1 MGW      -0.098000
      7 C21          8.7430     8.3700     3.4790 ca         1 MGW      -0.113500
      8 C22          9.0980     8.6980     2.1840 ca         1 MGW      -0.131000
      9 C24          6.9250     8.0360     1.4230 ca         1 MGW      -0.098000
     10 C26          3.2350     5.3270     0.6640 c          1 MGW       0.958600
     11 C03          0.7310     1.4680     5.5960 c          1 MGW       0.672100
     12 O02         -0.3840     1.0220     6.1960 os         1 MGW      -0.425900
     13 C01         -0.4150     1.0670     7.6470 c3         1 MGW       0.267700
     14 C05          0.8360     1.4510     4.0940 c3         1 MGW      -0.020300
     15 C06          0.6940     0.0130     3.5880 c3         1 MGW       0.082900
     16 C07          0.6760     0.0100     2.0810 cc         1 MGW      -0.456900
     17 C08          1.7480     0.0000     1.2660 cd         1 MGW       0.347200
     18 N09          1.3050     0.0000     0.0000 nd         1 MGW      -0.598000
     19 N11         -0.4320     0.0070     1.2790 na         1 MGW       0.256100
     20 O14          1.3870     4.0700     3.7730 o          1 MGW      -0.644100
     21 N16          3.5790     5.3290     3.0700 n3         1 MGW      -0.513600
     22 C25          2.6760     5.7610     1.9940 c3         1 MGW       0.003800
     23 O27          2.6390     5.7150    -0.4740 o          1 MGW      -0.896800
     24 O28          4.2210     4.6290     0.6220 o          1 MGW      -0.896800
     25 C18          4.8210     7.4390     2.9820 c3         1 MGW       0.070900
     26 C19          6.5700     7.7140     2.7200 ca         1 MGW      -0.078300
     27 C23          8.1860     8.5370     1.1560 ca         1 MGW      -0.113500
     28 H10         -0.6320    -0.0020    -0.8800 h5         1 MGW       0.019100
     29 HN12         2.9130     1.3640     3.5550 hn         1 MGW       0.180500
     30 H115         3.9170     3.4680     2.1670 h1         1 MGW       0.056200
     31 H215         4.4020     3.5730     3.8660 h1         1 MGW       0.056200
     32 H117         5.3160     5.6280     1.9350 h1         1 MGW       0.041200
     33 H217         5.5710     5.5510     3.6840 h1         1 MGW       0.041200
     34 H22         10.0870     9.0850     1.9740 ha         1 MGW       0.089000
     35 H24          6.2110     7.9080     0.6180 ha         1 MGW       0.114500
     36 H101         0.4190     0.5010     8.0440 h1         1 MGW      -0.002633
     37 H201        -1.3440     0.6390     8.0020 h1         1 MGW      -0.002633
     38 H301        -0.3420     2.0970     7.9770 h1         1 MGW      -0.002633
     39 H05          0.0480     2.0620     3.6700 h1         1 MGW       0.075700
     40 H106         1.5310    -0.5780     3.9400 hc         1 MGW       0.021200
     41 H206        -0.2300    -0.4120     3.9610 hc         1 MGW       0.021200
     42 H08          2.7860    -0.0000     1.5770 h4         1 MGW       0.005100
     43 HN11        -1.3860     0.0080     1.5830 hn         1 MGW       0.114700
     44 H125         2.5830     6.8400     2.0120 h1         1 MGW       0.040200
     45 H225         1.7010     5.3110     2.1400 h1         1 MGW       0.040200
     46 H118         4.4960     7.7280     3.9740 hc         1 MGW       0.025700
     47 H218         4.1060     7.7950     2.2500 hc         1 MGW       0.025700
     48 H23          8.4640     8.7920     0.1410 ha         1 MGW       0.092000
     49 H20          7.2010     7.6270     4.7630 ha         1 MGW       0.114500
     50 O04          1.6500     1.8840     6.2620 o          1 MGW      -0.568000
     51 H21          9.4570     8.4980     4.2850 ha         1 MGW       0.092000
@<TRIPOS>BOND
     1     1    18 2   
     2     1    19 1   
     3     1    28 1   
     4     2     3 1   
     5     2    14 1   
     6     2    29 1   
     7     3     4 1   
     8     3    20 2   
     9     4    21 1   
    10     4    30 1   
    11     4    31 1   
    12     5    21 1   
    13     5    25 1   
    14     5    32 1   
    15     5    33 1   
    16     6     7 ar  
    17     6    26 ar  
    18     6    49 1   
    19     7     8 ar  
    20     7    51 1   
    21     8    27 ar  
    22     8    34 1   
    23     9    26 ar  
    24     9    27 ar  
    25     9    35 1   
    26    10    22 1   
    27    10    23 1   
    28    10    24 1   
    29    11    12 1   
    30    11    14 1   
    31    11    50 2   
    32    12    13 1   
    33    13    36 1   
    34    13    37 1   
    35    13    38 1   
    36    14    15 1   
    37    14    39 1   
    38    15    16 1   
    39    15    40 1   
    40    15    41 1   
    41    16    17 2   
    42    16    19 1   
    43    17    18 1   
    44    17    42 1   
    45    19    43 1   
    46    21    22 1   
    47    22    44 1   
    48    22    45 1   
    49    25    26 1   
    50    25    46 1   
    51    25    47 1   
    52    27    48 1   
@<TRIPOS>SUBSTRUCTURE
     1 MGW         1 TEMP              0 ****  ****    0 ROOT
