@<TRIPOS>MOLECULE
molecule
   13    12     1     0     0
SMALL
bcc


@<TRIPOS>ATOM
      1 CD           0.0000     0.0000     0.0000 c3         1 MGX       0.194100
      2 NE           1.4650     0.0000     0.0000 nu         1 MGX      -0.857200
      3 CZ           2.1530     0.0000     1.1900 c2         1 MGX       0.696100
      4 NH1          1.4660     0.0000     2.3810 nz         1 MGX      -0.806600
      5 NH2          3.4570    -0.0000     1.1900 n2         1 MGX      -0.774100
      6 HD1         -0.3610     0.8850     0.5110 h1         1 MGX       0.061367
      7 HD2         -0.3610    -0.0000    -1.0210 h1         1 MGX       0.061367
      8 HD3         -0.3610    -0.8840     0.5110 h1         1 MGX       0.061367
      9 HNE          1.9650    -0.0000    -0.8670 hn         1 MGX       0.514800
     10 HH11         0.8910     0.8170     2.4350 hn         1 MGX       0.469133
     11 HH12         0.8910    -0.8170     2.4350 hn         1 MGX       0.469133
     12 HNH2         3.9580    -0.0000     2.0560 hn         1 MGX       0.442400
     13 HH13         2.1170     0.0000     3.1420 hn         1 MGX       0.469133
@<TRIPOS>BOND
     1     1     2 1
     2     1     6 1
     3     1     7 1
     4     1     8 1
     5     2     3 1
     6     2     9 1
     7     3     4 1
     8     3     5 2
     9     4    10 1
    10     4    11 1
    11     5    12 1
    12    13     4 1
@<TRIPOS>SUBSTRUCTURE
     1 MGX         1 TEMP              0 ****  ****    0 ROOT
