@<TRIPOS>MOLECULE
MGZ
   31    32     1     0     0
SMALL
bcc


@<TRIPOS>ATOM
      1 C2         -0.2150    0.0710    0.1080 ca        1 MGZ      0.012400
      2 C3          1.0650    0.6280    0.1000 ca        1 MGZ     -0.144500
      3 CL1        -1.1740    0.1450   -1.3060 cl        1 MGZ     -0.144400
      4 C4          1.8400    0.5740    1.2580 ca        1 MGZ     -0.096000
      5 C5         -0.7200   -0.5490    1.2550 ca        1 MGZ     -0.144500
      6 C6          0.0640   -0.6030    2.4050 ca        1 MGZ     -0.096000
      7 C7          1.3460   -0.0370    2.4160 ca        1 MGZ     -0.046300
      8 C8          2.1880   -0.1050    3.6520 c3        1 MGZ      0.040400
      9 C9          2.3350   -1.5670    4.1960 c         1 MGZ      0.910600
     10 O12         1.5140    0.7460    4.6150 os        1 MGZ     -0.315900
     11 O11         3.5230   -1.9740    4.3190 o         1 MGZ     -0.810300
     12 O10         1.3010   -2.2220    4.4720 o         1 MGZ     -0.810300
     13 C13         2.2720    1.2030    5.6620 ca        1 MGZ      0.157100
     14 C16         3.5050    0.6620    6.0640 ca        1 MGZ     -0.167000
     15 C14         1.7080    2.2880    6.3650 ca        1 MGZ     -0.137000
     16 C17         4.1690    1.2160    7.1550 ca        1 MGZ     -0.108000
     17 C15         2.3950    2.8160    7.4540 ca        1 MGZ     -0.149300
     18 C18         3.6270    2.2930    7.8550 ca        1 MGZ     -0.147000
     19 C19         1.7930    3.9760    8.2320 c3        1 MGZ      0.687200
     20 F20         0.9270    4.7740    7.5220 f         1 MGZ     -0.249967
     21 F21         1.0610    3.6090    9.3380 f         1 MGZ     -0.249967
     22 F22         2.7090    4.8700    8.7390 f         1 MGZ     -0.249967
     23 H1          1.4600    1.1060   -0.8070 ha        1 MGZ      0.132000
     24 H2          2.8490    1.0120    1.2560 ha        1 MGZ      0.161000
     25 H3         -1.7240   -0.9970    1.2510 ha        1 MGZ      0.132000
     26 H4         -0.2870   -1.1190    3.3180 ha        1 MGZ      0.161000
     27 H5          3.2120    0.3160    3.4530 h1        1 MGZ      0.046700
     28 H7          3.9250   -0.2180    5.5360 ha        1 MGZ      0.210000
     29 H8          0.7380    2.6970    6.0490 ha        1 MGZ      0.155000
     30 H9          5.1310    0.7890    7.4740 ha        1 MGZ      0.131000
     31 H10         4.1560    2.7290    8.7130 ha        1 MGZ      0.131000
@<TRIPOS>BOND
     1    1    2 ar  
     2    1    3 1   
     3    1    5 ar  
     4    2    4 ar  
     5    2   23 1   
     6    4    7 ar  
     7    4   24 1   
     8    5    6 ar  
     9    5   25 1   
    10    6    7 ar  
    11    6   26 1   
    12    7    8 1   
    13    8    9 1   
    14    8   10 1   
    15    8   27 1   
    16    9   11 1   
    17    9   12 1   
    18   10   13 1   
    19   13   14 ar  
    20   13   15 ar  
    21   14   16 ar  
    22   14   28 1   
    23   15   17 ar  
    24   15   29 1   
    25   16   18 ar  
    26   16   30 1   
    27   17   18 ar  
    28   17   19 1   
    29   18   31 1   
    30   19   20 1   
    31   19   21 1   
    32   19   22 1   
@<TRIPOS>SUBSTRUCTURE
     1 MGZ         1 TEMP              0 ****  ****    0 ROOT
