@<TRIPOS>MOLECULE
molecule
   31    32     1     0     0
SMALL
bcc


@<TRIPOS>ATOM
      1 C2           0.0000     0.0000     0.0000 ca         1 MGZ       0.015400
      2 C3           1.3840     0.0000     0.0000 ca         1 MGZ      -0.133000
      3 Cl1         -0.8690    -0.0060    -1.5030 cl         1 MGZ      -0.154400
      4 C4           2.0740     0.0000     1.1970 ca         1 MGZ      -0.097000
      5 C5          -0.6910     0.0010     1.1980 ca         1 MGZ      -0.133000
      6 C6           0.0000     0.0050     2.3950 ca         1 MGZ      -0.097000
      7 C7           1.3830    -0.0010     2.3940 ca         1 MGZ      -0.023300
      8 C8           2.1370    -0.0020     3.6990 c3         1 MGZ       0.063400
      9 C9           2.2810    -1.4180     4.1950 c          1 MGZ       0.871600
     10 O12          1.4200     0.7700     4.6640 os         1 MGZ      -0.309900
     11 O11          3.0090    -2.3020     3.4970 o          1 MGZ      -0.813300
     12 O10          1.7400    -1.7560     5.2200 o          1 MGZ      -0.813300
     13 C13          2.1400     1.3070     5.6840 ca         1 MGZ       0.187100
     14 C16          3.4870     1.0030     5.8180 ca         1 MGZ      -0.177000
     15 C14          1.5310     2.1640     6.5890 ca         1 MGZ      -0.133000
     16 C17          4.2180     1.5500     6.8550 ca         1 MGZ      -0.100000
     17 C15          2.2650     2.7080     7.6250 ca         1 MGZ      -0.155300
     18 C18          3.6060     2.3990     7.7590 ca         1 MGZ      -0.149000
     19 C19          1.6050     3.6390     8.6080 c3         1 MGZ       0.673200
     20 F20          0.5670     4.3280     7.9730 f          1 MGZ      -0.232633
     21 F21          1.0870     2.8970     9.6760 f          1 MGZ      -0.232633
     22 F22          2.5470     4.5540     9.0900 f          1 MGZ      -0.232633
     23 H1           1.9250     0.0010    -0.9380 ha         1 MGZ       0.128500
     24 H2           3.1580    -0.0020     1.1970 ha         1 MGZ       0.149000
     25 H3          -1.7750     0.0030     1.1980 ha         1 MGZ       0.128500
     26 H4          -0.5410     0.0040     3.3330 ha         1 MGZ       0.149000
     27 H5           3.1190     0.4300     3.5480 h1         1 MGZ       0.047700
     28 H7           3.9660     0.3390     5.1090 ha         1 MGZ       0.167000
     29 H8           0.4810     2.4060     6.4830 ha         1 MGZ       0.148000
     30 H9           5.2690     1.3120     6.9610 ha         1 MGZ       0.128000
     31 H10          4.1800     2.8270     8.5720 ha         1 MGZ       0.128000
@<TRIPOS>BOND
     1    20    19 1
     2    22    19 1
     3    18    16 ar
     4    18    17 ar
     5    16    14 ar
     6    19    17 1
     7    19    21 1
     8    17    15 ar
     9    14    13 ar
    10    15    13 ar
    11    13    10 1
    12    10     8 1
    13     8     7 1
    14     8     9 1
    15     4     7 ar
    16     4     2 ar
    17     7     6 ar
    18     2     1 ar
    19     6     5 ar
    20     1     5 ar
    21     1     3 1
    22     9    12 1
    23     9    11 1
    24     2    23 1
    25     4    24 1
    26     5    25 1
    27     6    26 1
    28     8    27 1
    29    14    28 1
    30    15    29 1
    31    16    30 1
    32    18    31 1
@<TRIPOS>SUBSTRUCTURE
     1 MGZ         1 TEMP              0 ****  ****    0 ROOT
