@<TRIPOS>MOLECULE
molecule
   72    77     1     0     0
SMALL
bcc


@<TRIPOS>ATOM
      1 O23          0.0000     0.0000     0.0000 o          1 MH4      -0.609100
      2 C21          1.2160     0.0000     0.0000 c          1 MH4       0.609600
      3 N22          1.8890     0.0000     1.1680 ns         1 MH4      -0.573900
      4 C32          1.1570    -0.0030     2.4360 c3         1 MH4       0.160300
      5 C33          2.1360    -0.0030     3.5820 ca         1 MH4      -0.078300
      6 C38          2.5960     1.1870     4.1230 ca         1 MH4      -0.246300
      7 C37          3.4930     1.1470     5.1740 ca         1 MH4       0.422200
      8 N36          3.9110    -0.0050     5.6600 nb         1 MH4      -0.688000
      9 C35          3.4940    -1.1570     5.1700 ca         1 MH4       0.426600
     10 C39          4.0030    -2.4450     5.7630 c3         1 MH4      -0.142400
     11 C34          2.5930    -1.1950     4.1230 ca         1 MH4      -0.237300
     12 C20          1.9540    -0.0030    -1.2790 cc         1 MH4       0.262800
     13 C16          1.3970    -0.0080    -2.5580 cc         1 MH4      -0.180600
     14 C8          -0.0280    -0.0310    -3.0290 c3         1 MH4      -0.002100
     15 N19          3.2710     0.0030    -1.4280 nd         1 MH4      -0.514800
     16 N18          3.5850    -0.0030    -2.6800 na         1 MH4       0.188400
     17 C24          4.9520    -0.0060    -3.2070 c3         1 MH4       0.054600
     18 C17          2.4640    -0.0010    -3.4290 cd         1 MH4      -0.218800
     19 C10          2.2380     0.0260    -4.8840 ca         1 MH4       0.589800
     20 N15          3.1980    -0.2040    -5.7670 nb         1 MH4      -0.803000
     21 C14          2.9250    -0.1920    -7.0650 ca         1 MH4       0.939900
     22 N13          1.7030     0.0550    -7.5140 nb         1 MH4      -0.786000
     23 C12          0.7040     0.3200    -6.6870 ca         1 MH4       0.499200
     24 C11          0.9430     0.3330    -5.3250 ca         1 MH4      -0.366900
     25 C9          -0.1440     0.7100    -4.3600 c3         1 MH4      -0.023100
     26 N1           3.9420    -0.4420    -7.9720 nu         1 MH4      -0.753300
     27 C2           3.6520    -0.5480    -9.3380 ca         1 MH4       0.131600
     28 C7           4.5750    -0.1130   -10.2800 ca         1 MH4      -0.120500
     29 C6           4.2880    -0.2170   -11.6260 ca         1 MH4      -0.150000
     30 C5           3.0780    -0.7560   -12.0390 ca         1 MH4       0.087600
     31 C4           2.1540    -1.1910   -11.0970 ca         1 MH4      -0.150000
     32 C3           2.4430    -1.0920    -9.7500 ca         1 MH4      -0.120500
     33 N25          2.7880    -0.8600   -13.4050 nh         1 MH4      -0.599000
     34 C30          1.4600    -1.4570   -13.6160 c3         1 MH4       0.164800
     35 C29          1.2140    -1.6270   -15.1180 c3         1 MH4       0.160300
     36 N28          1.3130    -0.3180   -15.7790 n3         1 MH4      -0.733600
     37 C31          1.0080    -0.4270   -17.2110 c3         1 MH4       0.153100
     38 C27          2.6400     0.2770   -15.5660 c3         1 MH4       0.160300
     39 C26          2.8850     0.4490   -14.0660 c3         1 MH4       0.164800
     40 H22          2.8900    -0.0040     1.1690 hn         1 MH4       0.332500
     41 H321         0.5330     0.8810     2.4950 h1         1 MH4       0.061700
     42 H322         0.5350    -0.8880     2.4920 h1         1 MH4       0.061700
     43 H38          2.2560     2.1370     3.7280 ha         1 MH4       0.143000
     44 H34          2.2540    -2.1440     3.7250 ha         1 MH4       0.144000
     45 H37          3.8570     2.0730     5.6020 h4         1 MH4       0.025100
     46 H391         4.7560    -2.2260     6.5110 hc         1 MH4       0.053700
     47 H392         3.1820    -2.9800     6.2240 hc         1 MH4       0.053700
     48 H393         4.4380    -3.0560     4.9810 hc         1 MH4       0.053700
     49 H81C        -0.3110    -1.0640    -3.1930 hc         1 MH4       0.074700
     50 H82C        -0.6320     0.4930    -2.2980 hc         1 MH4       0.074700
     51 H91C        -0.0670     1.7730    -4.1630 hc         1 MH4       0.055200
     52 H92C        -1.0970     0.4560    -4.8070 hc         1 MH4       0.055200
     53 H241         5.0910     0.8490    -3.8580 h1         1 MH4       0.067700
     54 H242         5.1210    -0.9180    -3.7670 h1         1 MH4       0.067700
     55 H243         5.6560     0.0480    -2.3850 h1         1 MH4       0.067700
     56 H1           4.8820    -0.5630    -7.6490 hn         1 MH4       0.463800
     57 H12         -0.2890     0.5190    -7.0720 h4         1 MH4       0.034100
     58 H7           5.5200     0.3070    -9.9580 ha         1 MH4       0.143500
     59 H3           1.7230    -1.4320    -9.0160 ha         1 MH4       0.143500
     60 H6           5.0080     0.1230   -12.3610 ha         1 MH4       0.139000
     61 H4           1.2100    -1.6140   -11.4200 ha         1 MH4       0.139000
     62 H301         0.7020    -0.8050   -13.1980 h1         1 MH4       0.049700
     63 H302         1.4190    -2.4250   -13.1320 h1         1 MH4       0.049700
     64 H261         3.8750     0.8600   -13.9070 h1         1 MH4       0.049700
     65 H262         2.1400     1.1170   -13.6530 h1         1 MH4       0.049700
     66 H291         1.9580    -2.2970   -15.5310 h1         1 MH4       0.042450
     67 H292         0.2230    -2.0360   -15.2760 h1         1 MH4       0.042450
     68 H311        -0.0050    -0.7880   -17.3380 h1         1 MH4       0.032700
     69 H312         1.1050     0.5460   -17.6770 h1         1 MH4       0.032700
     70 H313         1.6990    -1.1200   -17.6760 h1         1 MH4       0.032700
     71 H271         2.6820     1.2450   -16.0510 h1         1 MH4       0.042450
     72 H272         3.3980    -0.3740   -15.9830 h1         1 MH4       0.042450
@<TRIPOS>BOND
     1     1     2 2
     2     2     3 1
     3     2    12 1
     4     3     4 1
     5     4     5 1
     6     5     6 ar
     7     5    11 ar
     8     6     7 ar
     9     7     8 ar
    10     8     9 ar
    11     9    10 1
    12     9    11 ar
    13    12    13 1
    14    12    15 2
    15    13    14 1
    16    13    18 2
    17    14    25 1
    18    15    16 1
    19    16    17 1
    20    16    18 1
    21    18    19 1
    22    19    20 ar
    23    19    24 ar
    24    20    21 ar
    25    21    22 ar
    26    21    26 1
    27    22    23 ar
    28    23    24 ar
    29    24    25 1
    30    26    27 1
    31    27    28 ar
    32    27    32 ar
    33    28    29 ar
    34    29    30 ar
    35    30    31 ar
    36    30    33 1
    37    31    32 ar
    38    33    34 1
    39    33    39 1
    40    34    35 1
    41    35    36 1
    42    36    37 1
    43    36    38 1
    44    38    39 1
    45     3    40 1
    46     4    41 1
    47     4    42 1
    48     6    43 1
    49    11    44 1
    50     7    45 1
    51    10    46 1
    52    10    47 1
    53    10    48 1
    54    14    49 1
    55    14    50 1
    56    25    51 1
    57    25    52 1
    58    17    53 1
    59    17    54 1
    60    17    55 1
    61    26    56 1
    62    23    57 1
    63    28    58 1
    64    32    59 1
    65    29    60 1
    66    31    61 1
    67    34    62 1
    68    34    63 1
    69    39    64 1
    70    39    65 1
    71    35    66 1
    72    35    67 1
    73    37    68 1
    74    37    69 1
    75    37    70 1
    76    38    71 1
    77    38    72 1
@<TRIPOS>SUBSTRUCTURE
     1 MH4         1 TEMP              0 ****  ****    0 ROOT
