@<TRIPOS>MOLECULE
MH7
   62    63     1     0     0
SMALL
bcc


@<TRIPOS>ATOM
      1 C01          0.0000     0.0000     0.0000 c3         1 MH7       0.005900
      2 C02          1.5310     0.0000     0.0000 c3         1 MH7      -0.021400
      3 C03          2.0410     0.0000     1.4410 c3         1 MH7      -0.043400
      4 C04          3.5720     0.0000     1.4400 c3         1 MH7       0.162800
      5 N05          4.0610    -0.0000     2.8210 nu         1 MH7      -0.476900
      6 C06          5.4170     0.0000     3.0730 ca         1 MH7       0.774900
      7 N07          6.2600     0.0020     2.0480 nb         1 MH7      -0.760000
      8 C08          7.5670     0.0020     2.2390 ca         1 MH7       0.547200
      9 C09          8.0630     0.0030     3.5480 ca         1 MH7      -0.557200
     10 C10          9.5110     0.0030     3.8080 c          1 MH7       0.644700
     11 O11          9.9880     0.8030     4.5910 o          1 MH7      -0.668100
     12 N12         10.3100    -0.8800     3.1780 n          1 MH7      -0.153800
     13 C13          9.7520    -1.7780     2.1630 c3         1 MH7       0.069300
     14 C14         11.7350    -0.9450     3.5090 c3         1 MH7       0.054000
     15 C15         12.5130     0.0120     2.6040 c3         1 MH7      -0.054400
     16 C16         14.0020    -0.0550     2.9500 c3         1 MH7      -0.022400
     17 C17         14.7800     0.9030     2.0450 c3         1 MH7       0.006900
     18 C18          7.1340     0.0010     4.6120 ca         1 MH7       0.633200
     19 N19          7.5680     0.0010     5.9210 nu         1 MH7      -0.475900
     20 C20          6.5980     0.1160     7.0130 c3         1 MH7       0.127500
     21 C21          7.2860     0.7030     8.2460 c3         1 MH7      -0.036400
     22 C22          6.2730     0.8220     9.3870 c3         1 MH7      -0.037900
     23 C23          5.7200    -0.5640     9.7240 c3         1 MH7       0.188100
     24 O24          4.7740    -0.4520    10.7900 oh         1 MH7      -0.585800
     25 C25          5.0310    -1.1510     8.4910 c3         1 MH7      -0.037900
     26 C26          6.0440    -1.2700     7.3500 c3         1 MH7      -0.036400
     27 N27          5.8370     0.0050     4.3290 nb         1 MH7      -0.785000
     28 H012        -0.3610     0.8850     0.5110 hc         1 MH7       0.001367
     29 H011        -0.3610    -0.0000    -1.0210 hc         1 MH7       0.001367
     30 H013        -0.3610    -0.8840     0.5110 hc         1 MH7       0.001367
     31 H021         1.8920    -0.8840    -0.5110 hc         1 MH7       0.015200
     32 H022         1.8920     0.8840    -0.5110 hc         1 MH7       0.015200
     33 H031         1.6800     0.8850     1.9520 hc         1 MH7       0.018200
     34 H032         1.6800    -0.8850     1.9520 hc         1 MH7       0.018200
     35 H041         3.9330    -0.8840     0.9290 h1         1 MH7       0.026700
     36 H042         3.9330     0.8850     0.9300 h1         1 MH7       0.026700
     37 H051         3.4110     0.0130     3.5820 hn         1 MH7       0.300800
     38 H081         8.2460     0.0040     1.3950 h4         1 MH7      -0.015900
     39 H133        10.4350    -2.6020     1.9950 h1         1 MH7       0.013367
     40 H131         9.6090    -1.2330     1.2380 h1         1 MH7       0.013367
     41 H132         8.8000    -2.1630     2.5070 h1         1 MH7       0.013367
     42 H141        12.0950    -1.9560     3.3600 h1         1 MH7       0.029200
     43 H142        11.8790    -0.6590     4.5450 h1         1 MH7       0.029200
     44 H152        12.3690    -0.2730     1.5690 hc         1 MH7       0.024700
     45 H151        12.1530     1.0230     2.7540 hc         1 MH7       0.024700
     46 H162        14.3630    -1.0660     2.8000 hc         1 MH7       0.012200
     47 H161        14.1460     0.2300     3.9850 hc         1 MH7       0.012200
     48 H172        14.4200     1.9140     2.1950 hc         1 MH7       0.001367
     49 H173        14.6350     0.6190     1.0090 hc         1 MH7       0.001367
     50 H171        15.8340     0.8550     2.2890 hc         1 MH7       0.001367
     51 H191         8.5480    -0.0260     6.1230 hn         1 MH7       0.320800
     52 H201         5.7840     0.7640     6.7130 h1         1 MH7       0.058700
     53 H212         8.0960     0.0510     8.5510 hc         1 MH7       0.022450
     54 H211         7.6760     1.6850     8.0070 hc         1 MH7       0.022450
     55 H221         6.7620     1.2360    10.2600 hc         1 MH7       0.024450
     56 H222         5.4610     1.4690     9.0810 hc         1 MH7       0.024450
     57 H231         6.5330    -1.2130    10.0250 h1         1 MH7      -0.002300
     58 H241         5.0640    -0.9680    11.5230 ho         1 MH7       0.387000
     59 H251         4.2210    -0.4990     8.1870 hc         1 MH7       0.024450
     60 H252         4.6410    -2.1330     8.7300 hc         1 MH7       0.024450
     61 H261         5.5550    -1.6840     6.4770 hc         1 MH7       0.022450
     62 H262         6.8570    -1.9170     7.6570 hc         1 MH7       0.022450
@<TRIPOS>BOND
     1     1     2 1   
     2     1    28 1   
     3     1    29 1   
     4     1    30 1   
     5     2     3 1   
     6     2    31 1   
     7     2    32 1   
     8     3     4 1   
     9     3    33 1   
    10     3    34 1   
    11     4     5 1   
    12     4    35 1   
    13     4    36 1   
    14     5     6 1   
    15     5    37 1   
    16     6     7 ar  
    17     6    27 ar  
    18     7     8 ar  
    19     8     9 ar  
    20     8    38 1   
    21     9    10 1   
    22     9    18 ar  
    23    10    11 2   
    24    10    12 1   
    25    12    13 1   
    26    12    14 1   
    27    13    39 1   
    28    13    40 1   
    29    13    41 1   
    30    14    15 1   
    31    14    42 1   
    32    14    43 1   
    33    15    16 1   
    34    15    44 1   
    35    15    45 1   
    36    16    17 1   
    37    16    46 1   
    38    16    47 1   
    39    17    48 1   
    40    17    49 1   
    41    17    50 1   
    42    18    19 1   
    43    18    27 ar  
    44    19    20 1   
    45    19    51 1   
    46    20    21 1   
    47    20    26 1   
    48    20    52 1   
    49    21    22 1   
    50    21    53 1   
    51    21    54 1   
    52    22    23 1   
    53    22    55 1   
    54    22    56 1   
    55    23    24 1   
    56    23    25 1   
    57    23    57 1   
    58    24    58 1   
    59    25    26 1   
    60    25    59 1   
    61    25    60 1   
    62    26    61 1   
    63    26    62 1   
@<TRIPOS>SUBSTRUCTURE
     1 MH7         1 TEMP              0 ****  ****    0 ROOT
