@<TRIPOS>MOLECULE
MH9
   33    32     1     0     0
SMALL
bcc


@<TRIPOS>ATOM
      1 C          -0.3560   -0.2170    0.1460 c         1 MH9      0.911600
      2 O           0.0740   -1.0360   -0.7140 o         1 MH9     -0.844800
      3 C1         -0.2640   -0.6480    1.6250 c3        1 MH9     -0.176200
      4 C2         -0.4250    0.4880    2.5590 c2        1 MH9     -0.115300
      5 C3         -0.1490    0.4600    3.8320 c1        1 MH9     -0.084800
      6 C4          0.1430    0.4590    5.1030 c2        1 MH9     -0.237300
      7 C5         -0.8230    0.1170    6.1780 c3        1 MH9     -0.026200
      8 C6         -0.2260   -0.8690    7.1630 c3        1 MH9     -0.076400
      9 C7         -1.2040   -1.1990    8.2700 c3        1 MH9     -0.079400
     10 C8         -0.6110   -2.1830    9.2550 c3        1 MH9     -0.079400
     11 C9         -1.5890   -2.5130   10.3620 c3        1 MH9     -0.079400
     12 C10        -0.9960   -3.4990   11.3470 c3        1 MH9     -0.080400
     13 C11        -1.9660   -3.8300   12.4510 c3        1 MH9     -0.091100
     14 OXT        -0.8620    0.9080   -0.1340 o         1 MH9     -0.844800
     15 H1         -1.0800   -1.3970    1.8050 hc        1 MH9      0.042200
     16 H2          0.7140   -1.1670    1.7890 hc        1 MH9      0.042200
     17 H3         -0.8130    1.4130    2.0790 ha        1 MH9      0.175000
     18 H4          1.1540    0.7330    5.4490 ha        1 MH9      0.109000
     19 H51        -1.1110    1.0570    6.7230 hc        1 MH9      0.035700
     20 H52        -1.7630   -0.3140    5.7420 hc        1 MH9      0.035700
     21 H61         0.0630   -1.8080    6.6230 hc        1 MH9      0.038700
     22 H62         0.7120   -0.4390    7.6050 hc        1 MH9      0.038700
     23 H71        -2.1400   -1.6290    7.8270 hc        1 MH9      0.036200
     24 H72        -1.4950   -0.2580    8.8080 hc        1 MH9      0.036200
     25 H81         0.3270   -1.7530    9.6970 hc        1 MH9      0.038200
     26 H82        -0.3200   -3.1230    8.7170 hc        1 MH9      0.038200
     27 H91        -1.8790   -1.5730   10.9010 hc        1 MH9      0.037700
     28 H92        -2.5260   -2.9420    9.9200 hc        1 MH9      0.037700
     29 H101       -0.7060   -4.4380   10.8060 hc        1 MH9      0.037200
     30 H102       -0.0580   -3.0690   11.7870 hc        1 MH9      0.037200
     31 H111       -1.5100   -4.5580   13.1650 hc        1 MH9      0.029367
     32 H112       -2.8980   -4.2820   12.0340 hc        1 MH9      0.029367
     33 H113       -2.2480   -2.9100   13.0180 hc        1 MH9      0.029367
@<TRIPOS>BOND
     1    1    2 1   
     2    1    3 1   
     3    1   14 1   
     4    3    4 1   
     5    3   15 1   
     6    3   16 1   
     7    4    5 2   
     8    4   17 1   
     9    5    6 2   
    10    6    7 1   
    11    6   18 1   
    12    7    8 1   
    13    7   19 1   
    14    7   20 1   
    15    8    9 1   
    16    8   21 1   
    17    8   22 1   
    18    9   10 1   
    19    9   23 1   
    20    9   24 1   
    21   10   11 1   
    22   10   25 1   
    23   10   26 1   
    24   11   12 1   
    25   11   27 1   
    26   11   28 1   
    27   12   13 1   
    28   12   29 1   
    29   12   30 1   
    30   13   31 1   
    31   13   32 1   
    32   13   33 1   
@<TRIPOS>SUBSTRUCTURE
     1 MH9         1 TEMP              0 ****  ****    0 ROOT
