@<TRIPOS>MOLECULE
molecule
   33    32     1     0     0
SMALL
bcc


@<TRIPOS>ATOM
      1 C            0.0000     0.0000     0.0000 c          1 MH9       0.859800
      2 O            1.2170     0.0000     0.0000 o          1 MH9      -0.845300
      3 C1          -0.7090     0.0000     1.2280 ce         1 MH9      -0.138200
      4 C2          -0.0330     0.0000     2.4000 cf         1 MH9      -0.197000
      5 C3          -0.7640     0.0010     3.6670 cf         1 MH9      -0.092000
      6 C4          -0.0960     0.0010     4.8230 c2         1 MH9      -0.239200
      7 C5          -0.8500     0.0020     6.1280 c3         1 MH9      -0.036200
      8 C6          -0.3880    -1.1800     6.9840 c3         1 MH9      -0.077400
      9 C7          -1.1520    -1.1790     8.3080 c3         1 MH9      -0.083400
     10 C8          -0.6910    -2.3610     9.1640 c3         1 MH9      -0.082400
     11 C9          -1.4560    -2.3600    10.4900 c3         1 MH9      -0.082400
     12 C10         -0.9940    -3.5420    11.3440 c3         1 MH9      -0.084400
     13 C11         -1.7590    -3.5420    12.6700 c3         1 MH9      -0.092100
     14 OXT         -0.6740     0.0050    -1.1690 o          1 MH9      -0.845300
     15 H1          -1.7920     0.0010     1.2280 ha         1 MH9       0.100000
     16 H2           1.0510     0.0000     2.4000 ha         1 MH9       0.149000
     17 H3          -1.8470     0.0020     3.6680 ha         1 MH9       0.108000
     18 H4           0.9870    -0.0000     4.8230 ha         1 MH9       0.125000
     19 H51         -0.6570     0.9280     6.6560 hc         1 MH9       0.034200
     20 H52         -1.9120    -0.0870     5.9320 hc         1 MH9       0.034200
     21 H61          0.6740    -1.0910     7.1790 hc         1 MH9       0.042700
     22 H62         -0.5820    -2.1060     6.4560 hc         1 MH9       0.042700
     23 H71         -2.2140    -1.2670     8.1130 hc         1 MH9       0.037200
     24 H72         -0.9580    -0.2530     8.8370 hc         1 MH9       0.037200
     25 H81          0.3710    -2.2730     9.3590 hc         1 MH9       0.040700
     26 H82         -0.8860    -3.2870     8.6360 hc         1 MH9       0.040700
     27 H91         -2.5180    -2.4490    10.2940 hc         1 MH9       0.039200
     28 H92         -1.2620    -1.4350    11.0180 hc         1 MH9       0.039200
     29 H101        -1.1870    -4.4670    10.8160 hc         1 MH9       0.039200
     30 H102         0.0680    -3.4530    11.5400 hc         1 MH9       0.039200
     31 H111        -1.5670    -2.6160    13.1980 hc         1 MH9       0.029700
     32 H112        -2.8210    -3.6320    12.4740 hc         1 MH9       0.029700
     33 H113        -1.4320    -4.3780    13.2760 hc         1 MH9       0.029700
@<TRIPOS>BOND
     1     1     2 1
     2     1     3 1
     3     3     4 2
     4     4     5 1
     5     5     6 2
     6     6     7 1
     7     7     8 1
     8     8     9 1
     9     9    10 1
    10    10    11 1
    11    11    12 1
    12    12    13 1
    13     1    14 1
    14     3    15 1
    15     4    16 1
    16     5    17 1
    17     6    18 1
    18     7    19 1
    19     7    20 1
    20     8    21 1
    21     8    22 1
    22     9    23 1
    23     9    24 1
    24    10    25 1
    25    10    26 1
    26    11    27 1
    27    11    28 1
    28    12    29 1
    29    12    30 1
    30    13    31 1
    31    13    32 1
    32    13    33 1
@<TRIPOS>SUBSTRUCTURE
     1 MH9         1 TEMP              0 ****  ****    0 ROOT
