@<TRIPOS>MOLECULE
MHA
   21    20     1     0     0
SMALL
bcc


@<TRIPOS>ATOM
      1 N1         -0.2290   -0.1760   -0.3800 n3        1 MHA     -0.713600
      2 C1          1.0890   -0.0340    0.2230 c3        1 MHA      0.066800
      3 C2          1.4250   -1.0610    1.3270 c         1 MHA      0.907100
      4 O1          2.1540   -2.0530    1.0240 o         1 MHA     -0.865050
      5 O2          0.9930   -0.8790    2.5080 o         1 MHA     -0.865050
      6 C3         -0.4150    0.6180   -1.5830 c3        1 MHA      0.066800
      7 C4         -0.1200    2.1370   -1.4900 c         1 MHA      0.907100
      8 O3          1.0490    2.5400   -1.2360 o         1 MHA     -0.865050
      9 O4         -1.0750    2.9190   -1.7830 o         1 MHA     -0.865050
     10 C5         -0.6350   -1.5570   -0.5830 c3        1 MHA      0.105800
     11 C6         -1.7640   -2.0080    0.3570 c         1 MHA      0.659100
     12 O5         -2.6800   -2.7630   -0.0670 o         1 MHA     -0.739100
     13 N2         -1.7400   -1.6230    1.6620 n         1 MHA     -0.646000
     14 HC11        1.9000   -0.0950   -0.5580 h1        1 MHA      0.022450
     15 HC12        1.1180    1.0020    0.6630 h1        1 MHA      0.022450
     16 HC31       -1.4940    0.5090   -1.8870 h1        1 MHA      0.022450
     17 HC32        0.2220    0.2290   -2.4340 h1        1 MHA      0.022450
     18 HC51        0.2170   -2.2790   -0.4020 h1        1 MHA      0.057200
     19 HC52       -1.0210   -1.7350   -1.6270 h1        1 MHA      0.057200
     20 HN21       -2.4090   -1.9860    2.2890 hn        1 MHA      0.321000
     21 HN22       -0.9660   -1.0980    2.0230 hn        1 MHA      0.321000
@<TRIPOS>BOND
     1    1    2 1   
     2    1    6 1   
     3    1   10 1   
     4    2    3 1   
     5    2   14 1   
     6    2   15 1   
     7    3    4 1   
     8    3    5 1   
     9    6    7 1   
    10    6   16 1   
    11    6   17 1   
    12    7    8 1   
    13    7    9 1   
    14   10   11 1   
    15   10   18 1   
    16   10   19 1   
    17   11   12 2   
    18   11   13 1   
    19   13   20 1   
    20   13   21 1   
@<TRIPOS>SUBSTRUCTURE
     1 MHA         1 TEMP              0 ****  ****    0 ROOT
