@<TRIPOS>MOLECULE
molecule
   30    31     1     0     0
SMALL
bcc


@<TRIPOS>ATOM
      1 C1           0.0000     0.0000     0.0000 ca         1 MHB       0.086400
      2 C2           1.4100     0.0000     0.0000 ca         1 MHB      -0.029600
      3 C3           2.0980     0.0000     1.2120 ca         1 MHB      -0.116000
      4 C4           1.3980    -0.0130     2.4020 ca         1 MHB      -0.129000
      5 C5           0.0130    -0.0190     2.4030 ca         1 MHB      -0.174000
      6 C6          -0.6880    -0.0120     1.2140 ca         1 MHB      -0.128000
      7 C1'         -2.6640     0.0070    -2.3510 ca         1 MHB       0.123400
      8 C2'         -4.0630     0.0020    -2.3470 ca         1 MHB      -0.087000
      9 C3'         -4.7520     0.0090    -3.5390 ca         1 MHB      -0.120300
     10 C4'         -4.0610     0.0160    -4.7440 ca         1 MHB       0.098100
     11 C5'         -2.6710     0.0280    -4.7530 ca         1 MHB      -0.191000
     12 C6'         -1.9720     0.0200    -3.5660 ca         1 MHB      -0.098000
     13 C            2.1520     0.0130    -1.2750 c          1 MHB       0.875200
     14 CM3         -6.2600     0.0030    -3.5370 c3         1 MHB      -0.031800
     15 N1          -0.6880     0.0060    -1.1790 ne         1 MHB      -0.110400
     16 N1'         -1.9770     0.0000    -1.1730 nf         1 MHB      -0.305400
     17 O            1.5480     0.0140    -2.3290 o          1 MHB      -0.821300
     18 OXT          3.4990     0.0250    -1.2700 o          1 MHB      -0.821300
     19 O4'         -4.7450     0.0230    -5.9160 oh         1 MHB      -0.523100
     20 H3           3.1820     0.0020     1.2210 ha         1 MHB       0.162000
     21 H4           1.9370    -0.0160     3.3420 ha         1 MHB       0.108000
     22 H5          -0.5240    -0.0280     3.3440 ha         1 MHB       0.107000
     23 H6          -1.7710    -0.0140     1.2240 ha         1 MHB       0.136000
     24 H2'         -4.6030    -0.0060    -1.4080 ha         1 MHB       0.137000
     25 H5'         -2.1360     0.0360    -5.6950 ha         1 MHB       0.131000
     26 H6'         -0.8890     0.0270    -3.5740 ha         1 MHB       0.200000
     27 HM31        -6.6200     0.1150    -2.5210 hc         1 MHB       0.036033
     28 HM32        -6.6180    -0.9350    -3.9450 hc         1 MHB       0.036033
     29 HM33        -6.6260     0.8230    -4.1420 hc         1 MHB       0.036033
     30 HO4'        -4.4350    -0.6790    -6.4650 ho         1 MHB       0.412000
@<TRIPOS>BOND
     1     1     2 ar
     2     1     6 ar
     3     1    15 1
     4     2     3 ar
     5     2    13 1
     6     3     4 ar
     7     3    20 1
     8     4     5 ar
     9     4    21 1
    10     5     6 ar
    11     5    22 1
    12     6    23 1
    13     7     8 ar
    14     7    12 ar
    15     7    16 1
    16     8     9 ar
    17     8    24 1
    18     9    10 ar
    19     9    14 1
    20    10    11 ar
    21    10    19 1
    22    11    12 ar
    23    11    25 1
    24    12    26 1
    25    13    17 1
    26    13    18 1
    27    14    27 1
    28    14    28 1
    29    14    29 1
    30    15    16 2
    31    19    30 1
@<TRIPOS>SUBSTRUCTURE
     1 MHB         1 TEMP              0 ****  ****    0 ROOT
