@<TRIPOS>MOLECULE
MHC
   34    36     1     0     0
SMALL
bcc


@<TRIPOS>ATOM
      1 S1           0.0000     0.0000     0.0000 sh         1 MHC      -0.426900
      2 C2           1.8140     0.0000     0.0000 c3         1 MHC       0.119700
      3 C3           2.3230     0.0000     1.4430 c3         1 MHC      -0.082400
      4 C4           3.8300     0.0010     1.4440 c          1 MHC       0.592100
      5 O5           4.4360    -0.0000     0.3940 o          1 MHC      -0.649100
      6 N6           4.5030     0.0000     2.6110 n          1 MHC      -0.146800
      7 C7           5.9740    -0.0000     2.6340 c3         1 MHC       0.049000
      8 C8           6.4620     1.3060     3.2680 c3         1 MHC       0.055800
      9 C9           5.6520     1.5830     4.5080 cc         1 MHC      -0.131400
     10 C10          4.4640     1.0090     4.7950 cd         1 MHC      -0.301300
     11 C11          3.7860     0.0060     3.8970 c3         1 MHC       0.144200
     12 N12          3.9960     1.4800     5.9930 na         1 MHC       0.383600
     13 C14          5.9650     2.4780     5.6030 ca         1 MHC      -0.095800
     14 C13          4.8840     2.3770     6.5140 ca         1 MHC      -0.225200
     15 C15          4.8740     3.1240     7.6890 ca         1 MHC      -0.109000
     16 C18          7.0490     3.3250     5.8540 ca         1 MHC      -0.038000
     17 C17          7.0130     4.0490     7.0210 ca         1 MHC      -0.134000
     18 C16          5.9600     3.9540     7.9130 ca         1 MHC      -0.080000
     19 H1          -0.4430     0.0000    -1.2520 hs         1 MHC       0.194800
     20 H21          2.1750    -0.8850    -0.5110 h1         1 MHC       0.047200
     21 H22          2.1750     0.8850    -0.5110 h1         1 MHC       0.047200
     22 H31          1.9610     0.8840     1.9530 hc         1 MHC       0.043200
     23 H32          1.9620    -0.8850     1.9530 hc         1 MHC       0.043200
     24 H71          6.3510    -0.0730     1.6210 h1         1 MHC       0.037700
     25 H72          6.3260    -0.8400     3.2200 h1         1 MHC       0.037700
     26 H81          7.5080     1.2100     3.5330 hc         1 MHC       0.026200
     27 H82          6.3340     2.1190     2.5640 hc         1 MHC       0.026200
     28 H111         3.8340    -0.9790     4.3460 h1         1 MHC       0.024700
     29 H112         2.7540     0.2940     3.7390 h1         1 MHC       0.024700
     30 H12          3.1330     1.2080     6.4210 hn         1 MHC       0.111700
     31 H15          4.0560     3.0590     8.3960 ha         1 MHC       0.106000
     32 H18          7.8780     3.4060     5.1620 ha         1 MHC       0.107000
     33 H17          7.8350     4.7160     7.2500 ha         1 MHC       0.100000
     34 H16          5.9850     4.5490     8.8180 ha         1 MHC       0.097000
@<TRIPOS>BOND
     1     1     2 1   
     2     1    19 1   
     3     2     3 1   
     4     2    20 1   
     5     2    21 1   
     6     3     4 1   
     7     3    22 1   
     8     3    23 1   
     9     4     5 2   
    10     4     6 1   
    11     6     7 1   
    12     6    11 1   
    13     7     8 1   
    14     7    24 1   
    15     7    25 1   
    16     8     9 1   
    17     8    26 1   
    18     8    27 1   
    19     9    10 2   
    20     9    13 1   
    21    10    11 1   
    22    10    12 1   
    23    11    28 1   
    24    11    29 1   
    25    12    14 1   
    26    12    30 1   
    27    13    14 ar  
    28    13    16 ar  
    29    14    15 ar  
    30    15    18 ar  
    31    15    31 1   
    32    16    17 ar  
    33    16    32 1   
    34    17    18 ar  
    35    17    33 1   
    36    18    34 1   
@<TRIPOS>SUBSTRUCTURE
     1 MHC         1 TEMP              0 ****  ****    0 ROOT
