@<TRIPOS>MOLECULE
MHD
   20    21     1     0     0
SMALL
bcc


@<TRIPOS>ATOM
      1 C10        -0.0300   -0.1620   -0.0090 c3        1 MHD      0.033600
      2 N3          1.3780    0.0430    0.0220 na        1 MHD     -0.074400
      3 C2          2.1700   -0.0240    1.1840 cc        1 MHD     -0.144100
      4 C4          2.2270    0.0700   -1.0900 ca        1 MHD     -0.022200
      5 C5          1.9450    0.1210   -2.4660 ca        1 MHD     -0.146000
      6 C6          3.0140    0.1770   -3.3460 ca        1 MHD     -0.106000
      7 C7          4.3460    0.1850   -2.8930 ca        1 MHD     -0.160000
      8 C8          4.6440    0.1350   -1.5410 ca        1 MHD     -0.080000
      9 C9          3.5970    0.0740   -0.6220 ca        1 MHD     -0.141800
     10 C1          3.5150    0.0110    0.8220 cd        1 MHD      0.051900
     11 O1          4.5360   -0.0130    1.7300 oh        1 MHD     -0.476100
     12 H1         -0.2790   -1.2540   -0.1110 h1        1 MHD      0.048367
     13 H2         -0.4690    0.3900   -0.8840 h1        1 MHD      0.048367
     14 H3         -0.4850    0.2270    0.9400 h1        1 MHD      0.048367
     15 H4          1.7190   -0.0730    2.1750 h4        1 MHD      0.178000
     16 H5          0.9090    0.1170   -2.8290 ha        1 MHD      0.133000
     17 H6          2.8200    0.2150   -4.4290 ha        1 MHD      0.130000
     18 H7          5.1600    0.2310   -3.6320 ha        1 MHD      0.131000
     19 H8          5.6860    0.1430   -1.1910 ha        1 MHD      0.127000
     20 H9          5.3550    0.0810    1.2220 ho        1 MHD      0.420000
@<TRIPOS>BOND
     1    1    2 1   
     2    1   12 1   
     3    1   13 1   
     4    1   14 1   
     5    2    3 1   
     6    2    4 1   
     7    3   10 2   
     8    3   15 1   
     9    4    5 ar  
    10    4    9 ar  
    11    5    6 ar  
    12    5   16 1   
    13    6    7 ar  
    14    6   17 1   
    15    7    8 ar  
    16    7   18 1   
    17    8    9 ar  
    18    8   19 1   
    19    9   10 1   
    20   10   11 1   
    21   11   20 1   
@<TRIPOS>SUBSTRUCTURE
     1 MHD         1 TEMP              0 ****  ****    0 ROOT
