@<TRIPOS>MOLECULE
molecule
   20    21     1     0     0
SMALL
bcc


@<TRIPOS>ATOM
      1 C10          0.0000     0.0000     0.0000 c3         1 MHD       0.044600
      2 N3           1.4650     0.0000     0.0000 na         1 MHD      -0.073400
      3 C2           2.2560     0.0000     1.1240 cc         1 MHD      -0.133100
      4 C4           2.2570    -0.0070    -1.1270 ca         1 MHD      -0.026200
      5 C5           1.9780    -0.0140    -2.4900 ca         1 MHD      -0.147000
      6 C6           3.0140    -0.0200    -3.3990 ca         1 MHD      -0.104000
      7 C7           4.3340    -0.0180    -2.9690 ca         1 MHD      -0.163000
      8 C8           4.6290    -0.0120    -1.6350 ca         1 MHD      -0.067000
      9 C9           3.5950    -0.0060    -0.6960 ca         1 MHD      -0.114800
     10 C1           3.5520    -0.0010     0.7700 cd         1 MHD       0.030900
     11 O1           4.6230    -0.0010     1.6120 oh         1 MHD      -0.488100
     12 H1          -0.3610     0.0100     1.0210 h1         1 MHD       0.048367
     13 H2          -0.3610     0.8790    -0.5190 h1         1 MHD       0.048367
     14 H3          -0.3610    -0.8900    -0.5020 h1         1 MHD       0.048367
     15 H4           1.8890     0.0010     2.1440 h4         1 MHD       0.169000
     16 H5           0.9520    -0.0160    -2.8360 ha         1 MHD       0.126000
     17 H6           2.7960    -0.0250    -4.4600 ha         1 MHD       0.129000
     18 H7           5.1360    -0.0230    -3.6970 ha         1 MHD       0.129000
     19 H8           5.6610    -0.0100    -1.3070 ha         1 MHD       0.136000
     20 H9           4.6990     0.8440     2.0230 ho         1 MHD       0.407000
@<TRIPOS>BOND
     1     3    10 2
     2     3     2 1
     3    11    10 1
     4     1     2 1
     5    10     9 1
     6     2     4 1
     7     9     4 ar
     8     9     8 ar
     9     4     5 ar
    10     8     7 ar
    11     5     6 ar
    12     7     6 ar
    13     1    12 1
    14     1    13 1
    15     1    14 1
    16     3    15 1
    17     5    16 1
    18     6    17 1
    19     7    18 1
    20     8    19 1
    21    11    20 1
@<TRIPOS>SUBSTRUCTURE
     1 MHD         1 TEMP              0 ****  ****    0 ROOT
