@<TRIPOS>MOLECULE
MHF
   55    54     1     0     0
SMALL
bcc


@<TRIPOS>ATOM
      1 N1          1.1660    0.0910    1.6280 na        1 MHF     -0.814200
      2 C2          2.1490   -0.7410    1.0620 cc        1 MHF      0.818100
      3 NA2         2.2750   -0.6780   -0.3650 nh        1 MHF     -0.884800
      4 N3          2.9340   -1.5610    1.7470 nd        1 MHF     -0.746100
      5 C4          2.7280   -1.7160    3.1360 cd        1 MHF      0.755700
      6 O4          3.4810   -2.4860    3.7710 o         1 MHF     -0.635300
      7 C4A         1.6370   -0.9630    3.7690 cc        1 MHF      0.010100
      8 N5          1.4120   -1.1440    5.0870 n1        1 MHF     -0.742500
      9 C6         -1.7660   -0.2630    5.1030 c3        1 MHF     -0.133400
     10 C7         -0.7900    0.8210    4.6430 c3        1 MHF      0.156800
     11 N8         -0.2450    0.6780    3.3350 n2        1 MHF     -0.776900
     12 C8A         0.7870   -0.0490    2.9960 cc        1 MHF      0.765500
     13 C9         -3.0570   -0.3040    4.2930 c3        1 MHF      0.174800
     14 N10        -3.9320    0.8580    4.3720 n3        1 MHF     -0.596800
     15 C11         1.2600   -1.3520    6.2210 c1        1 MHF      0.398300
     16 C12        -4.6350    1.2880    9.0480 ce        1 MHF     -0.170500
     17 C13        -5.5790    1.6010    7.9260 c3        1 MHF      0.078900
     18 C14        -4.9840    1.3410    6.6510 c1        1 MHF     -0.194100
     19 C15        -4.4440    1.1250    5.6000 c1        1 MHF     -0.024200
     20 C16        -4.7640   -0.9000   10.4520 c2        1 MHF     -0.238100
     21 C17        -4.6990    0.1880    9.7500 c1        1 MHF      0.004200
     22 O          -3.9650    3.5310    9.5570 o         1 MHF     -0.650100
     23 N          -2.3000    1.9800    9.3500 n         1 MHF     -0.650000
     24 CA         -0.5990   -1.8020   12.9180 ce        1 MHF     -0.316200
     25 CB         -0.4200   -1.8990   11.5950 c2        1 MHF     -0.041200
     26 CG         -0.9290   -0.9060   10.6270 c3        1 MHF     -0.178200
     27 CD         -0.2640   -1.0220    9.2610 c         1 MHF      0.906600
     28 OE1        -0.6270   -0.2400    8.3310 o         1 MHF     -0.848300
     29 OE2         0.6410   -1.8920    9.0580 o         1 MHF     -0.848300
     30 CT         -0.1130   -2.7820   13.8910 c         1 MHF      0.638300
     31 O1          0.9540   -3.5920   13.6010 oh        1 MHF     -0.598100
     32 O2         -0.5600   -2.9760   15.0270 o         1 MHF     -0.525000
     33 HN1         0.5410    0.5880    1.0300 hn        1 MHF      0.446800
     34 HN21        2.3240    0.2580   -0.7090 hn        1 MHF      0.394800
     35 HN22        3.0340   -1.2360   -0.7030 hn        1 MHF      0.394800
     36 H6         -1.9870   -0.0820    6.1910 hc        1 MHF      0.069200
     37 H71        -1.2920   -1.2760    5.0280 hc        1 MHF      0.069200
     38 H72        -0.0060    0.9440    5.4470 h1        1 MHF      0.037700
     39 H8         -1.3450    1.8070    4.6080 h1        1 MHF      0.037700
     40 H91        -2.8120   -0.4300    3.2010 h1        1 MHF      0.057700
     41 H92        -3.6550   -1.1990    4.6270 h1        1 MHF      0.057700
     42 H111       -3.4830    1.6770    3.9940 hn        1 MHF      0.390800
     43 H112        1.0510   -1.5020    7.3030 ha        1 MHF      0.332500
     44 H13        -5.8620    2.6920    7.9970 hc        1 MHF      0.069200
     45 H14        -6.5200    0.9930    8.0380 hc        1 MHF      0.069200
     46 H16        -5.3630   -0.9740   11.3720 ha        1 MHF      0.135500
     47 H17        -4.2170   -1.8120   10.1670 ha        1 MHF      0.135500
     48 HN          1.2970   -3.3860   12.7200 ho        1 MHF      0.432000
     49 HA         -1.6110    2.6870    9.4220 hn        1 MHF      0.331000
     50 HB1        -1.1610   -0.9690   13.3710 ha        1 MHF      0.152000
     51 HB2         0.1310   -2.7420   11.1300 ha        1 MHF      0.155000
     52 HG1        -2.0370   -1.0460   10.4890 hc        1 MHF      0.070200
     53 HG2        -0.7730    0.1390   11.0090 hc        1 MHF      0.070200
     54 H2         -2.0060    1.0800    9.0240 hn        1 MHF      0.331000
     55 C          -3.6140    2.3500    9.3270 c         1 MHF      0.666300
@<TRIPOS>BOND
     1    1    2 1   
     2    1   12 1   
     3    1   33 1   
     4    2    3 1   
     5    2    4 2   
     6    3   34 1   
     7    3   35 1   
     8    4    5 1   
     9    5    6 1   
    10    5    7 2   
    11    7    8 1   
    12    7   12 1   
    13    8   15 3   
    14    9   10 1   
    15    9   13 1   
    16    9   36 1   
    17    9   37 1   
    18   10   11 1   
    19   10   38 1   
    20   10   39 1   
    21   11   12 2   
    22   13   14 1   
    23   13   40 1   
    24   13   41 1   
    25   14   19 1   
    26   14   42 1   
    27   15   43 1   
    28   16   17 1   
    29   16   21 2   
    30   16   55 1   
    31   17   18 1   
    32   17   44 1   
    33   17   45 1   
    34   18   19 3   
    35   20   21 2   
    36   20   46 1   
    37   20   47 1   
    38   22   55 2   
    39   23   49 1   
    40   23   54 1   
    41   23   55 1   
    42   24   25 2   
    43   24   30 1   
    44   24   50 1   
    45   25   26 1   
    46   25   51 1   
    47   26   27 1   
    48   26   52 1   
    49   26   53 1   
    50   27   28 1   
    51   27   29 1   
    52   30   31 1   
    53   30   32 2   
    54   31   48 1   
@<TRIPOS>SUBSTRUCTURE
     1 MHF         1 TEMP              0 ****  ****    0 ROOT
