@<TRIPOS>MOLECULE
MHH
   27    26     1     0     0
SMALL
bcc


@<TRIPOS>ATOM
      1 C1         -0.0580    0.0630   -0.0580 c3        1 MHH     -0.326600
      2 C2          1.4410    0.0390   -0.0110 c3        1 MHH     -0.070400
      3 C3          1.9870    0.0180    1.3990 c3        1 MHH     -0.068400
      4 C7         -2.7560    0.1480   -2.7850 c3        1 MHH      0.164700
      5 P          -0.4720    0.0860   -1.7020 p5        1 MHH      1.336600
      6 O1         -2.1350    0.1230   -1.5420 os        1 MHH     -0.587200
      7 O2         -0.1540   -1.2120   -2.3440 o         1 MHH     -0.865500
      8 C4          3.5010   -0.0040    1.4060 c3        1 MHH     -0.080400
      9 C5          4.0490   -0.0240    2.8170 c3        1 MHH     -0.080400
     10 C6          5.5560   -0.0460    2.8290 c3        1 MHH     -0.090100
     11 O3         -0.0940    1.3770   -2.3240 o         1 MHH     -0.865500
     12 H1         -0.4570    0.9600    0.4700 hc        1 MHH      0.062700
     13 H1A        -0.4850   -0.8320    0.4520 hc        1 MHH      0.062700
     14 H2          1.8230    0.9430   -0.5600 hc        1 MHH      0.055700
     15 H2A         1.7950   -0.8660   -0.5760 hc        1 MHH      0.055700
     16 H3          1.6210    0.9210    1.9550 hc        1 MHH      0.028700
     17 H3A         1.5950   -0.8830    1.9390 hc        1 MHH      0.028700
     18 H7         -3.8640    0.1730   -2.6280 h1        1 MHH      0.006700
     19 H7A        -2.4270    1.0610   -3.3490 h1        1 MHH      0.006700
     20 H7B        -2.4700   -0.7690   -3.3650 h1        1 MHH      0.006700
     21 H4          3.8650   -0.9070    0.8490 hc        1 MHH      0.038700
     22 H4A         3.8910    0.8980    0.8640 hc        1 MHH      0.038700
     23 H5          3.6810    0.8780    3.3730 hc        1 MHH      0.032700
     24 H5A         3.6560   -0.9260    3.3570 hc        1 MHH      0.032700
     25 H6          5.9660    0.8580    2.3160 hc        1 MHH      0.025033
     26 H6A         5.9390   -0.0600    3.8770 hc        1 MHH      0.025033
     27 H6B         5.9400   -0.9510    2.3000 hc        1 MHH      0.025033
@<TRIPOS>BOND
     1    1    2 1   
     2    1    5 1   
     3    1   12 1   
     4    1   13 1   
     5    2    3 1   
     6    2   14 1   
     7    2   15 1   
     8    3    8 1   
     9    3   16 1   
    10    3   17 1   
    11    4    6 1   
    12    4   18 1   
    13    4   19 1   
    14    4   20 1   
    15    5    6 1   
    16    5    7 1   
    17    5   11 1   
    18    8    9 1   
    19    8   21 1   
    20    8   22 1   
    21    9   10 1   
    22    9   23 1   
    23    9   24 1   
    24   10   25 1   
    25   10   26 1   
    26   10   27 1   
@<TRIPOS>SUBSTRUCTURE
     1 MHH         1 TEMP              0 ****  ****    0 ROOT
