@<TRIPOS>MOLECULE
molecule
   27    26     1     0     0
SMALL
bcc


@<TRIPOS>ATOM
      1 C1           0.0000     0.0000     0.0000 c3         1 MHH      -0.260600
      2 C2           1.5290     0.0000     0.0000 c3         1 MHH      -0.043400
      3 C3           2.0400     0.0000     1.4430 c3         1 MHH      -0.080400
      4 C7          -2.9810     0.2650    -2.9180 c3         1 MHH       0.221700
      5 P           -0.6070    -0.0000    -1.7190 p5         1 MHH       1.177600
      6 O1          -2.2120     0.1320    -1.7200 os         1 MHH      -0.616200
      7 O2          -0.1820    -1.3760    -2.4380 o          1 MHH      -0.822500
      8 C4           3.5700     0.0010     1.4420 c3         1 MHH      -0.082400
      9 C5           4.0800     0.0010     2.8840 c3         1 MHH      -0.085400
     10 C6           5.6100     0.0010     2.8840 c3         1 MHH      -0.092100
     11 O3          -0.0180     1.1430    -2.4510 o          1 MHH      -0.822500
     12 H1          -0.3610     0.8850     0.5100 hc         1 MHH       0.039700
     13 H1A         -0.3610    -0.8840     0.5110 hc         1 MHH       0.039700
     14 H2           1.8900    -0.8840    -0.5110 hc         1 MHH       0.055700
     15 H2A          1.8900     0.8850    -0.5110 hc         1 MHH       0.055700
     16 H3           1.6790     0.8840     1.9540 hc         1 MHH       0.028700
     17 H3A          1.6790    -0.8850     1.9530 hc         1 MHH       0.028700
     18 H7          -2.9110     1.2830    -3.2810 h1         1 MHH       0.010700
     19 H7A         -4.0170     0.0260    -2.7110 h1         1 MHH       0.010700
     20 H7B         -2.5970    -0.4140    -3.6710 h1         1 MHH       0.010700
     21 H4           3.9300     0.8850     0.9310 hc         1 MHH       0.040700
     22 H4A          3.9310    -0.8840     0.9310 hc         1 MHH       0.040700
     23 H5           3.7190     0.8850     3.3950 hc         1 MHH       0.034200
     24 H5A          3.7190    -0.8840     3.3950 hc         1 MHH       0.034200
     25 H6           5.9710    -0.8870     2.3790 hc         1 MHH       0.025700
     26 H6A          5.9710     0.0070     3.9060 hc         1 MHH       0.025700
     27 H6B          5.9710     0.8820     2.3680 hc         1 MHH       0.025700
@<TRIPOS>BOND
     1     1     2 1
     2     5     1 1
     3     1    12 1
     4     1    13 1
     5     2     3 1
     6     2    14 1
     7     2    15 1
     8     3     8 1
     9     3    16 1
    10     3    17 1
    11     4     6 1
    12     4    18 1
    13     4    19 1
    14     4    20 1
    15    11     5 1
    16     5     7 1
    17     5     6 1
    18     8     9 1
    19     8    21 1
    20     8    22 1
    21     9    10 1
    22     9    23 1
    23     9    24 1
    24    10    25 1
    25    10    26 1
    26    10    27 1
@<TRIPOS>SUBSTRUCTURE
     1 MHH         1 TEMP              0 ****  ****    0 ROOT
