@<TRIPOS>MOLECULE
MHI
   52    52     1     0     0
SMALL
bcc


@<TRIPOS>ATOM
      1 C1           0.0000     0.0000     0.0000 c3         1 MHI      -0.110000
      2 N1           2.0210    -1.2000    -0.6920 nz         1 MHI       0.873000
      3 O1           2.4070    -1.0350     1.9330 o          1 MHI      -0.425000
      4 C2           1.5300     0.0000     0.0000 c3         1 MHI      -0.316000
      5 N2           2.0660     1.1500     2.1240 ns         1 MHI       0.182000
      6 C3           2.0330     0.0000     1.4220 c2         1 MHI       0.158000
      7 N3          -1.5020     3.3530     5.3270 ny         1 MHI      -0.044000
      8 C4           2.5540     1.1500     3.5050 c3         1 MHI      -0.159000
      9 N4          -4.6670     4.4680     1.4590 nz         1 MHI       0.854000
     10 O4           0.5400     4.1990     5.5190 o          1 MHI      -0.371000
     11 C5           4.0560     1.2740     3.5070 c2         1 MHI       0.399000
     12 C6           1.9430     2.3320     4.2620 c3         1 MHI      -0.106000
     13 C7           0.4290     2.1420     4.3670 c3         1 MHI      -0.164000
     14 C8          -0.1720     3.3060     5.1130 c2         1 MHI       0.245000
     15 C9          -2.0860     4.4850     6.0520 c3         1 MHI      -0.215000
     16 C10         -2.0010     4.2300     7.5340 c2         1 MHI       0.426000
     17 C11         -3.5520     4.6480     5.6450 c3         1 MHI      -0.083000
     18 C12         -3.6320     5.0310     4.1660 c3         1 MHI      -0.100000
     19 C13         -5.0970     5.1940     3.7590 c3         1 MHI      -0.128000
     20 C15         -6.6110     5.8570     1.9090 c2         1 MHI       0.383000
     21 C14         -5.1770     5.5760     2.2790 c3         1 MHI      -0.352000
     22 H11C        -0.3610    -0.4930    -0.8940 hc         1 MHI       0.068000
     23 H12C        -0.3610    -0.5280     0.8740 hc         1 MHI       0.068000
     24 H13C        -0.3610     1.0210     0.0200 hc         1 MHI       0.068000
     25 H2           1.8910     0.8850    -0.5110 hx         1 MHI       0.128000
     26 H11N         3.0110    -1.2750    -0.5680 hn         1 MHI       0.017000
     27 H12N         1.5740    -2.0100    -0.3120 hn         1 MHI       0.017000
     28 HA           1.8040     2.0110     1.6860 hn         1 MHI       0.069000
     29 H4           2.2680     0.2240     3.9890 h1         1 MHI       0.107000
     30 H3          -2.0810     2.5860     5.0480 hn         1 MHI       0.032000
     31 H9          -1.3960     4.5680     5.2210 DU         1 MHI       0.173000
     32 H61C         2.3710     2.3840     5.2560 hc         1 MHI       0.097500
     33 H62C         2.1560     3.2510     3.7290 hc         1 MHI       0.097500
     34 H14         -4.5790     6.4610     2.1030 hx         1 MHI       0.128000
     35 H71C         0.5520     1.1290     4.7310 hc         1 MHI       0.053000
     36 H72C         0.0060     2.1080     3.3710 hc         1 MHI       0.053000
     37 H111        -3.8080     3.6220     5.8800 hc         1 MHI       0.090500
     38 H112        -4.0700     5.3530     6.2840 hc         1 MHI       0.090500
     39 H121        -3.1870     4.2390     3.5750 hc         1 MHI       0.028000
     40 H122        -3.3730     5.9860     3.7250 hc         1 MHI       0.028000
     41 H131        -5.5540     5.9720     4.3580 hc         1 MHI       0.093500
     42 H132        -5.6220     4.2600     3.9200 hc         1 MHI       0.093500
     43 O2           4.6570     1.3540     2.4620 o          1 MHI      -0.608000
     44 O3           4.7260     1.2960     4.6700 o          1 MHI      -0.608000
     45 O5          -1.5050     3.2090     7.9440 o          1 MHI      -0.612000
     46 O6          -2.4790     5.1380     8.4000 o          1 MHI      -0.612000
     47 O7          -7.2640     5.0140     1.3410 o          1 MHI      -0.566000
     48 O8          -7.1620     7.0430     2.2100 o          1 MHI      -0.566000
     49 H41N        -4.9520     4.5980     0.5090 hn         1 MHI       0.001667
     50 H13          1.8230    -1.1240    -1.6710 hn         1 MHI       0.017000
     51 H42         -3.6670     4.4610     1.4930 hn         1 MHI       0.001667
     52 H42N        -5.0340     3.6030     1.8020 hn         1 MHI       0.001667
@<TRIPOS>BOND
     1     1     4 1   
     2     1    22 1   
     3     1    23 1   
     4     1    24 1   
     5     2     4 1   
     6     2    26 1   
     7     2    27 1   
     8     2    50 1   
     9     3     6 1   
    10     4     6 1   
    11     4    25 1   
    12     5     6 1   
    13     5     8 1   
    14     5    28 1   
    15     7    14 1   
    16     7    15 1   
    17     7    30 1   
    18     7    31 1   
    19     8    11 1   
    20     8    12 1   
    21     8    29 1   
    22     9    21 1   
    23     9    49 1   
    24     9    51 1   
    25     9    52 1   
    26    10    14 1   
    27    11    43 1   
    28    11    44 1   
    29    12    13 1   
    30    12    32 1   
    31    12    33 1   
    32    13    14 1   
    33    13    35 1   
    34    13    36 1   
    35    15    16 1   
    36    15    17 1   
    37    15    31 1   
    38    16    45 1   
    39    16    46 1   
    40    17    18 1   
    41    17    37 1   
    42    17    38 1   
    43    18    19 1   
    44    18    39 1   
    45    18    40 1   
    46    19    21 1   
    47    19    41 1   
    48    19    42 1   
    49    20    21 1   
    50    20    47 1   
    51    20    48 1   
    52    21    34 1   
@<TRIPOS>SUBSTRUCTURE
     1 MHI         1 TEMP              0 ****  ****    0 ROOT
