@<TRIPOS>MOLECULE
molecule
   52    51     1     0     0
SMALL
bcc


@<TRIPOS>ATOM
      1 C1           0.0000     0.0000     0.0000 c3         1 MHI      -0.112100
      2 N1           2.0210    -1.2000    -0.6920 nz         1 MHI      -0.791600
      3 O1           2.4070    -1.0350     1.9330 o          1 MHI      -0.614100
      4 C2           1.5300     0.0000     0.0000 c3         1 MHI       0.010500
      5 N2           2.0660     1.1500     2.1240 ns         1 MHI      -0.475900
      6 C3           2.0330     0.0000     1.4220 c          1 MHI       0.623100
      7 N3          -1.5020     3.3530     5.3270 ns         1 MHI      -0.581900
      8 C4           2.5540     1.1500     3.5050 c3         1 MHI      -0.016300
      9 N4          -4.6670     4.4680     1.4590 nz         1 MHI      -0.789600
     10 O4           0.5400     4.1990     5.5190 o          1 MHI      -0.577100
     11 C5           4.0560     1.2740     3.5070 c          1 MHI       0.889600
     12 C6           1.9430     2.3320     4.2620 c3         1 MHI      -0.075400
     13 C7           0.4290     2.1420     4.3670 c3         1 MHI      -0.185400
     14 C8          -0.1720     3.3060     5.1130 c          1 MHI       0.663100
     15 C9          -2.0860     4.4850     6.0520 c3         1 MHI      -0.103300
     16 C10         -2.0010     4.2300     7.5340 c          1 MHI       0.910600
     17 C11         -3.5520     4.6480     5.6450 c3         1 MHI      -0.066400
     18 C12         -3.6320     5.0310     4.1660 c3         1 MHI      -0.074400
     19 C13         -5.0970     5.1940     3.7590 c3         1 MHI      -0.111400
     20 C15         -6.6110     5.8570     1.9090 c          1 MHI       0.874600
     21 C14         -5.1770     5.5760     2.2790 c3         1 MHI      -0.022500
     22 H11C        -0.3610    -0.4930    -0.8940 hc         1 MHI       0.068700
     23 H12C        -0.3610    -0.5280     0.8740 hc         1 MHI       0.068700
     24 H13C        -0.3610     1.0210     0.0200 hc         1 MHI       0.068700
     25 H2           1.8910     0.8850    -0.5110 hx         1 MHI       0.114700
     26 H11N         3.0110    -1.2750    -0.5680 hn         1 MHI       0.455133
     27 H12N         1.5740    -2.0100    -0.3120 hn         1 MHI       0.455133
     28 HA           1.8040     2.0110     1.6860 hn         1 MHI       0.308500
     29 H4           2.2680     0.2240     3.9890 h1         1 MHI       0.083700
     30 H3          -2.0810     2.5860     5.0480 hn         1 MHI       0.239500
     31 H9          -1.3960     4.5680     5.2210 h1         1 MHI       0.180700
     32 H61C         2.3710     2.3840     5.2560 hc         1 MHI       0.085700
     33 H62C         2.1560     3.2510     3.7290 hc         1 MHI       0.085700
     34 H14         -4.5790     6.4610     2.1030 hx         1 MHI       0.103700
     35 H71C         0.5520     1.1290     4.7310 hc         1 MHI       0.041200
     36 H72C         0.0060     2.1080     3.3710 hc         1 MHI       0.041200
     37 H111        -3.8080     3.6220     5.8800 hc         1 MHI       0.079200
     38 H112        -4.0700     5.3530     6.2840 hc         1 MHI       0.079200
     39 H121        -3.1870     4.2390     3.5750 hc         1 MHI       0.014200
     40 H122        -3.3730     5.9860     3.7250 hc         1 MHI       0.014200
     41 H131        -5.5540     5.9720     4.3580 hc         1 MHI       0.082700
     42 H132        -5.6220     4.2600     3.9200 hc         1 MHI       0.082700
     43 O2           4.6570     1.3540     2.4620 o          1 MHI      -0.822800
     44 O3           4.7260     1.2960     4.6700 o          1 MHI      -0.822800
     45 O5          -1.5050     3.2090     7.9440 o          1 MHI      -0.828300
     46 O6          -2.4790     5.1380     8.4000 o          1 MHI      -0.828300
     47 O7          -7.2640     5.0140     1.3410 o          1 MHI      -0.789300
     48 O8          -7.1620     7.0430     2.2100 o          1 MHI      -0.789300
     49 H41N        -4.9520     4.5980     0.5090 hn         1 MHI       0.433800
     50 H13          1.8230    -1.1240    -1.6710 hn         1 MHI       0.455133
     51 H42         -3.6670     4.4610     1.4930 hn         1 MHI       0.433800
     52 H42N        -5.0340     3.6030     1.8020 hn         1 MHI       0.433800
@<TRIPOS>BOND
     1     1     4 1
     2     2     4 1
     3     3     6 2
     4     4     6 1
     5     5     6 1
     6     5     8 1
     7    43    11 1
     8     7    14 1
     9     7    15 1
    10    44    11 1
    11     8    11 1
    12     8    12 1
    13     9    21 1
    14    10    14 2
    15    45    16 1
    16    12    13 1
    17    46    16 1
    18    13    14 1
    19    47    20 1
    20    48    20 1
    21    15    16 1
    22    15    17 1
    23    17    18 1
    24    18    19 1
    25    19    21 1
    26    20    21 1
    27     1    22 1
    28     1    23 1
    29     1    24 1
    30     4    25 1
    31     2    26 1
    32     2    27 1
    33     5    28 1
    34     8    29 1
    35     7    30 1
    36    15    31 1
    37    12    32 1
    38    12    33 1
    39     9    49 1
    40     9    52 1
    41    21    34 1
    42    13    35 1
    43    13    36 1
    44    17    37 1
    45    17    38 1
    46    18    39 1
    47    18    40 1
    48    19    41 1
    49    19    42 1
    50    50     2 1
    51    51     9 1
@<TRIPOS>SUBSTRUCTURE
     1 MHI         1 TEMP              0 ****  ****    0 ROOT
