@<TRIPOS>MOLECULE
molecule
   27    26     1     0     0
SMALL
bcc


@<TRIPOS>ATOM
      1 O1           0.0000     0.0000     0.0000 oh         1 MHN      -0.612800
      2 C8           1.4290     0.0000     0.0000 c3         1 MHN       0.140400
      3 C7           1.9400     0.0000     1.4410 c3         1 MHN      -0.081400
      4 C6           3.4700     0.0010     1.4400 c3         1 MHN      -0.082400
      5 C5           3.9820     0.0010     2.8800 c3         1 MHN      -0.081400
      6 C4           5.5110     0.0010     2.8800 c3         1 MHN      -0.076400
      7 C2           6.0230     0.0010     4.3210 c3         1 MHN      -0.077700
      8 C1           7.5520     0.0020     4.3200 c3         1 MHN      -0.088100
      9 C3           5.5130     1.2490     5.0440 c3         1 MHN      -0.088100
     10 HO1         -0.3140    -0.0000    -0.8890 ho         1 MHN       0.401000
     11 H81          1.7890     0.8840    -0.5110 h1         1 MHN       0.018700
     12 H82          1.7890    -0.8840    -0.5110 h1         1 MHN       0.018700
     13 H71          1.5790     0.8840     1.9520 hc         1 MHN       0.053700
     14 H72          1.5800    -0.8850     1.9520 hc         1 MHN       0.053700
     15 H61          3.8310    -0.8830     0.9280 hc         1 MHN       0.040700
     16 H62          3.8300     0.8860     0.9290 hc         1 MHN       0.040700
     17 H51          3.6210    -0.8840     3.3910 hc         1 MHN       0.044200
     18 H52          3.6210     0.8850     3.3920 hc         1 MHN       0.044200
     19 H41          5.8720    -0.8840     2.3690 hc         1 MHN       0.041200
     20 H42          5.8710     0.8850     2.3690 hc         1 MHN       0.041200
     21 H2           5.6630    -0.8840     4.8320 hc         1 MHN       0.048700
     22 H11          7.9130    -0.0330     5.3410 hc         1 MHN       0.033533
     23 H12          7.9130    -0.8640     3.7790 hc         1 MHN       0.033533
     24 H13          7.9120     0.9040     3.8400 hc         1 MHN       0.033533
     25 H31          6.1950     1.5060     5.8450 hc         1 MHN       0.033533
     26 H32          4.5310     1.0520     5.4550 hc         1 MHN       0.033533
     27 H33          5.4520     2.0730     4.3430 hc         1 MHN       0.033533
@<TRIPOS>BOND
     1     1     2 1
     2     1    10 1
     3     2     3 1
     4     2    11 1
     5     2    12 1
     6     3     4 1
     7     3    13 1
     8     3    14 1
     9     4     5 1
    10     4    15 1
    11     4    16 1
    12     5     6 1
    13     5    17 1
    14     5    18 1
    15     6     7 1
    16     6    19 1
    17     6    20 1
    18     7     8 1
    19     7     9 1
    20     7    21 1
    21     8    22 1
    22     8    23 1
    23     8    24 1
    24     9    25 1
    25     9    26 1
    26     9    27 1
@<TRIPOS>SUBSTRUCTURE
     1 MHN         1 TEMP              0 ****  ****    0 ROOT
