@<TRIPOS>MOLECULE
molecule
   35    37     1     0     0
SMALL
bcc


@<TRIPOS>ATOM
      1 C2           0.0000     0.0000     0.0000 ca         1 MHR      -0.395300
      2 C3           1.3840     0.0000     0.0000 ca         1 MHR       0.488200
      3 C1          -0.6800     0.0000     1.2120 ca         1 MHR       0.236100
      4 C11         -1.6040     0.0010     4.4190 ca         1 MHR       0.578100
      5 C12         -3.8990     0.0120     4.1760 ca         1 MHR       0.934900
      6 N7          -4.0820     0.0120     5.4890 nb         1 MHR      -0.777000
      7 C13         -3.0520     0.0080     6.3210 ca         1 MHR       0.476200
      8 C14         -1.7690     0.0020     5.8100 ca         1 MHR      -0.413600
      9 N5          -2.6870     0.0060     3.6430 nb         1 MHR      -0.732000
     10 C9          -0.2510     0.0010     3.8230 cc         1 MHR      -0.202000
     11 C8           0.9310     0.0010     4.4900 cd         1 MHR      -0.079100
     12 N2           1.9610     0.0000     3.5980 na         1 MHR      -0.269100
     13 C4           1.4800    -0.0000     2.3090 ca         1 MHR       0.491800
     14 N1           2.0730     0.0000     1.1210 nb         1 MHR      -0.749000
     15 C10          0.0780     0.0000     2.3890 ca         1 MHR      -0.222100
     16 O1          -2.0360     0.0010     1.2530 os         1 MHR      -0.268900
     17 C15         -2.7230     0.0010     0.0010 c3         1 MHR       0.130400
     18 C16         -4.2330     0.0020     0.2470 c3         1 MHR      -0.078400
     19 C17         -4.9690     0.0020    -1.0940 c3         1 MHR      -0.094100
     20 H2          -0.5470     0.0000    -0.9350 ha         1 MHR       0.143000
     21 H3           1.9130    -0.0000    -0.9460 h4         1 MHR       0.023100
     22 HN6         -5.6820    -0.7150     3.4060 hn         1 MHR       0.443300
     23 HN6A        -5.1440     0.7760     2.7040 hn         1 MHR       0.443300
     24 H13         -3.2140     0.0080     7.3930 h4         1 MHR       0.024100
     25 H14         -0.9090    -0.0020     6.4700 ha         1 MHR       0.137000
     26 H8           1.0390     0.0020     5.5680 h4         1 MHR       0.173000
     27 HN2          2.9310     0.0000     3.8450 hn         1 MHR       0.308700
     28 H15         -2.4480     0.8850    -0.5620 h1         1 MHR       0.033700
     29 H15A        -2.4490    -0.8840    -0.5610 h1         1 MHR       0.033700
     30 H16         -4.5060     0.8870     0.8090 hc         1 MHR       0.054700
     31 H16A        -4.5080    -0.8820     0.8090 hc         1 MHR       0.054700
     32 H17         -6.0380     0.0030    -0.9190 hc         1 MHR       0.036700
     33 H17A        -4.6950    -0.8830    -1.6560 hc         1 MHR       0.036700
     34 H17B        -4.6940     0.8860    -1.6570 hc         1 MHR       0.036700
     35 N6          -5.0020     0.0170     3.3410 nv         1 MHR      -1.039500
@<TRIPOS>BOND
     1     1     2 ar
     2     1     3 ar
     3     2    14 ar
     4     3    15 ar
     5     3    16 1
     6     4     8 ar
     7     4     9 ar
     8     4    10 1
     9    35     5 1
    10     5     6 ar
    11     5     9 ar
    12     6     7 ar
    13     7     8 ar
    14    10    11 2
    15    10    15 1
    16    11    12 1
    17    12    13 1
    18    13    14 ar
    19    13    15 ar
    20    16    17 1
    21    17    18 1
    22    18    19 1
    23     1    20 1
    24     2    21 1
    25    35    22 1
    26    35    23 1
    27     7    24 1
    28     8    25 1
    29    11    26 1
    30    12    27 1
    31    17    28 1
    32    17    29 1
    33    18    30 1
    34    18    31 1
    35    19    32 1
    36    19    33 1
    37    19    34 1
@<TRIPOS>SUBSTRUCTURE
     1 MHR         1 TEMP              0 ****  ****    0 ROOT
