@<TRIPOS>MOLECULE
MHT
   25    26     1     0     0
SMALL
bcc


@<TRIPOS>ATOM
      1 N1           0.0000     0.0000     0.0000 n3         1 MHT      -0.528600
      2 C2           1.4690     0.0000     0.0000 c3         1 MHT       0.149800
      3 C3           1.9770     0.0000     1.4440 c3         1 MHT       0.031400
      4 S3           2.9810     1.4820     1.7360 ss         1 MHT      -0.402200
      5 C4           0.7720     0.0000     2.3930 c3         1 MHT      -0.014700
      6 C5          -0.0760     1.2460     2.1060 c3         1 MHT      -0.062400
      7 C6          -0.5260     1.2120     0.6430 c3         1 MHT       0.157300
      8 C7          -0.5280    -1.2110     0.6440 c3         1 MHT       0.157300
      9 C8          -0.0770    -1.2450     2.1080 c3         1 MHT      -0.062400
     10 CM           4.4020     1.2350     0.6350 c3         1 MHT       0.114000
     11 H2           1.8300    -0.8850    -0.5100 h1         1 MHT       0.033700
     12 H2A          1.8300     0.8850    -0.5100 h1         1 MHT       0.033700
     13 H3           2.5760    -0.8850     1.6190 h1         1 MHT       0.050700
     14 H4           1.1050     0.0010     3.4230 hc         1 MHT       0.044700
     15 H5           0.5150     2.1360     2.2840 hc         1 MHT       0.026950
     16 H5A         -0.9440     1.2510     2.7540 hc         1 MHT       0.026950
     17 H6          -0.1490     2.0870     0.1280 h1         1 MHT       0.023450
     18 H6A         -1.6090     1.2040     0.5980 h1         1 MHT       0.023450
     19 H7          -0.1530    -2.0870     0.1290 h1         1 MHT       0.023450
     20 H7A         -1.6110    -1.2020     0.5990 h1         1 MHT       0.023450
     21 H8          -0.9450    -1.2490     2.7550 hc         1 MHT       0.026950
     22 H8A          0.5130    -2.1350     2.2860 hc         1 MHT       0.026950
     23 HM           4.5880     0.1740     0.5180 h1         1 MHT       0.031700
     24 HMA          5.2770     1.7100     1.0630 h1         1 MHT       0.031700
     25 HMB          4.1900     1.6740    -0.3320 h1         1 MHT       0.031700
@<TRIPOS>BOND
     1     1     2 1   
     2     1     7 1   
     3     1     8 1   
     4     2     3 1   
     5     2    11 1   
     6     2    12 1   
     7     3     4 1   
     8     3     5 1   
     9     3    13 1   
    10     4    10 1   
    11     5     6 1   
    12     5     9 1   
    13     5    14 1   
    14     6     7 1   
    15     6    15 1   
    16     6    16 1   
    17     7    17 1   
    18     7    18 1   
    19     8     9 1   
    20     8    19 1   
    21     8    20 1   
    22     9    21 1   
    23     9    22 1   
    24    10    23 1   
    25    10    24 1   
    26    10    25 1   
@<TRIPOS>SUBSTRUCTURE
     1 MHT         1 TEMP              0 ****  ****    0 ROOT
