@<TRIPOS>MOLECULE
MHZ
   50    52     1     0     0
SMALL
bcc


@<TRIPOS>ATOM
      1 N            0.0000     0.0000     0.0000 nz         1 MHZ       0.179600
      2 NA           1.4540     0.0000     0.0000 n7         1 MHZ      -0.506000
      3 CB           1.8780     0.0000     1.4060 c3         1 MHZ       0.121800
      4 CC           3.4050    -0.0010     1.4800 c3         1 MHZ      -0.034400
      5 CG           3.8470     0.0000     2.9430 c3         1 MHZ       0.144800
      6 ND           5.3140     0.0000     3.0140 n3         1 MHZ      -0.497600
      7 CE           5.7620    -1.2870     2.4680 c3         1 MHZ       0.142100
      8 C5'          5.6690     0.0000     4.4380 c3         1 MHZ       0.131800
      9 C4'          7.1910     0.0010     4.5860 c3         1 MHZ       0.155100
     10 O4'          7.7400     1.1910     3.9950 os         1 MHZ      -0.387600
     11 C1'          8.8870     1.5630     4.7860 c3         1 MHZ       0.150800
     12 N9           9.2070     2.9790     4.5960 na         1 MHZ       0.199000
     13 C4          10.4470     3.5560     4.7100 ca         1 MHZ       0.236800
     14 N3          11.6670     3.1080     4.9830 nb         1 MHZ      -0.609000
     15 C2          12.6930     3.9320     5.0140 ca         1 MHZ       0.644900
     16 N1          12.5710     5.2250     4.7730 nb         1 MHZ      -0.652000
     17 C6          11.3900     5.7620     4.4850 ca         1 MHZ       0.601200
     18 N6          11.2730     7.1180     4.2340 nv         1 MHZ      -0.645500
     19 C5          10.2650     4.9220     4.4410 ca         1 MHZ      -0.187200
     20 N7           8.9470     5.1080     4.1900 nc         1 MHZ      -0.486100
     21 C8           8.3240     3.9690     4.2810 cd         1 MHZ       0.256700
     22 C2'          8.4280     1.2930     6.2400 c3         1 MHZ       0.128100
     23 O2'          9.5490     1.0530     7.0930 oh         1 MHZ      -0.534800
     24 C3'          7.5740     0.0080     6.0780 c3         1 MHZ       0.130100
     25 O3'          8.3430    -1.1490     6.4100 oh         1 MHZ      -0.544800
     26 HN1         -0.3340    -0.8200     0.4670 hn         1 MHZ       0.232800
     27 HN2         -0.3340     0.0050    -0.9440 hn         1 MHZ       0.232800
     28 HNA1         1.7880     0.8300    -0.4490 hn         1 MHZ       0.329800
     29 HB1          1.4920    -0.8840     1.9000 h1         1 MHZ       0.032200
     30 HB2          1.4930     0.8850     1.8990 h1         1 MHZ       0.032200
     31 HCC1         3.7910     0.8830     0.9860 hc         1 MHZ       0.049200
     32 HCC2         3.7900    -0.8860     0.9870 hc         1 MHZ       0.049200
     33 HG1          3.4620    -0.8840     3.4360 h1         1 MHZ       0.014200
     34 HG2          3.4620     0.8850     3.4350 h1         1 MHZ       0.014200
     35 HE1          6.8390    -1.2750     2.3500 h1         1 MHZ       0.016367
     36 HE2          5.4830    -2.0840     3.1480 h1         1 MHZ       0.016367
     37 HE3          5.2950    -1.4540     1.5050 h1         1 MHZ       0.016367
     38 H5'1         5.2610    -0.8850     4.9120 h1         1 MHZ       0.021200
     39 H5'2         5.2600     0.8840     4.9120 h1         1 MHZ       0.021200
     40 H4'          7.6120    -0.8740     4.1050 h1         1 MHZ       0.051700
     41 H1'          9.7370     0.9390     4.5350 h2         1 MHZ       0.077700
     42 H2          13.6740     3.5360     5.2490 h5         1 MHZ       0.003100
     43 HN61        11.3880     7.4660     3.3030 hn         1 MHZ       0.283800
     44 HN62        11.1050     7.7530     4.9890 hn         1 MHZ       0.283800
     45 H8           7.2610     3.8290     4.1290 h5         1 MHZ       0.031800
     46 H2'          7.8220     2.1110     6.6090 h1         1 MHZ       0.021700
     47 HO2'         9.3790     1.4190     7.9460 ho         1 MHZ       0.394000
     48 H3'          6.6850     0.0690     6.6940 h1         1 MHZ       0.010700
     49 HO3'         7.9140    -1.6230     7.1040 ho         1 MHZ       0.393000
     50 HN3         -0.3340     0.8130     0.4800 hn         1 MHZ       0.232800
@<TRIPOS>BOND
     1     1     2 1   
     2     1    26 1   
     3     1    27 1   
     4     1    50 1   
     5     2     3 1   
     6     2    28 1   
     7     3     4 1   
     8     3    29 1   
     9     3    30 1   
    10     4     5 1   
    11     4    31 1   
    12     4    32 1   
    13     5     6 1   
    14     5    33 1   
    15     5    34 1   
    16     6     7 1   
    17     6     8 1   
    18     7    35 1   
    19     7    36 1   
    20     7    37 1   
    21     8     9 1   
    22     8    38 1   
    23     8    39 1   
    24     9    10 1   
    25     9    24 1   
    26     9    40 1   
    27    10    11 1   
    28    11    12 1   
    29    11    22 1   
    30    11    41 1   
    31    12    13 1   
    32    12    21 1   
    33    13    14 ar  
    34    13    19 ar  
    35    14    15 ar  
    36    15    16 ar  
    37    15    42 1   
    38    16    17 ar  
    39    17    18 1   
    40    17    19 ar  
    41    18    43 1   
    42    18    44 1   
    43    19    20 1   
    44    20    21 2   
    45    21    45 1   
    46    22    23 1   
    47    22    24 1   
    48    22    46 1   
    49    23    47 1   
    50    24    25 1   
    51    24    48 1   
    52    25    49 1   
@<TRIPOS>SUBSTRUCTURE
     1 MHZ         1 TEMP              0 ****  ****    0 ROOT
