@<TRIPOS>MOLECULE
MI1
   43    45     1     0     0
SMALL
bcc


@<TRIPOS>ATOM
      1 C1           0.0000     0.0000     0.0000 c3         1 MI1       0.125500
      2 C2           1.5320     0.0000     0.0000 c3         1 MI1      -0.008000
      3 C4           1.5070     1.0370     2.3070 c3         1 MI1       0.011000
      4 C5          -0.0240     1.0260     2.2800 c3         1 MI1      -0.007400
      5 C6          -0.5060     1.1780     0.8350 c3         1 MI1      -0.014700
      6 N3           2.0040     0.0000     1.3920 n          1 MI1      -0.154800
      7 O21          3.2780    -1.7850     1.0560 o          1 MI1      -0.636100
      8 C20          2.8750    -0.9340     1.8210 c          1 MI1       0.556100
      9 C22          3.3500    -0.9210     3.2520 c3         1 MI1      -0.008300
     10 C23          4.2890    -2.0350     3.4670 c1         1 MI1       0.247700
     11 N24          5.0230    -2.8890     3.6170 n1         1 MI1      -0.365800
     12 C7           0.0340     2.4860     0.2540 c3         1 MI1      -0.037100
     13 N8          -0.4890     0.1320    -1.3790 nh         1 MI1      -0.526300
     14 C9           0.1550    -0.8490    -2.2620 c3         1 MI1       0.130100
     15 C10         -1.8670     0.0140    -1.4290 ca         1 MI1       0.590200
     16 C15         -2.5850     0.4490    -2.5540 ca         1 MI1      -0.406400
     17 C16         -2.2350     1.0610    -3.8330 cc         1 MI1      -0.124200
     18 C11         -3.3840     1.2470    -4.5030 cd         1 MI1      -0.258100
     19 N12         -4.4380     0.8000    -3.7500 na         1 MI1       0.246900
     20 C14         -3.9850     0.3070    -2.5560 ca         1 MI1       0.298800
     21 N17         -4.5730    -0.2330    -1.4900 nb         1 MI1      -0.660000
     22 C18         -3.8590    -0.6270    -0.4570 ca         1 MI1       0.662900
     23 N19         -2.5440    -0.5170    -0.4160 nb         1 MI1      -0.699000
     24 H1          -0.3600    -0.9270     0.4300 h1         1 MI1       0.049700
     25 H2           1.7570     0.7770    -0.7200 h1         1 MI1       0.051200
     26 H2A          2.1730    -0.7110    -0.5060 h1         1 MI1       0.051200
     27 H4           1.9760     0.6980     3.2220 h1         1 MI1       0.027700
     28 H4A          2.0030     1.9410     1.9730 h1         1 MI1       0.027700
     29 H5          -0.2620     0.0160     2.5910 hc         1 MI1       0.030700
     30 H5A         -0.2970     1.7960     2.9910 hc         1 MI1       0.030700
     31 H6          -1.5890     1.1910     0.8190 hc         1 MI1       0.052700
     32 H22          2.5490    -0.3410     3.6930 hc         1 MI1       0.063700
     33 H22A         4.0290    -0.1490     2.9090 hc         1 MI1       0.063700
     34 H7           0.6010     3.0250     1.0030 hc         1 MI1       0.008700
     35 H7A         -0.4370     3.1010    -0.5030 hc         1 MI1       0.008700
     36 H7B          0.8860     2.2670    -0.3780 hc         1 MI1       0.008700
     37 H9           0.7090    -1.4850    -1.5820 h1         1 MI1       0.043367
     38 H9A          0.8630    -0.1020    -2.5980 h1         1 MI1       0.043367
     39 H9B         -0.6840    -0.9080    -2.9450 h1         1 MI1       0.043367
     40 H16         -1.1550     0.9920    -3.7700 ha         1 MI1       0.161000
     41 H11         -3.5190     1.1400    -5.5720 h4         1 MI1       0.139000
     42 H18         -4.4800    -0.9750     0.3590 h5         1 MI1      -0.000900
     43 HN12        -5.2820     0.8790    -4.2820 hn         1 MI1       0.130700
@<TRIPOS>BOND
     1     1     2 1   
     2     1     5 1   
     3     1    13 1   
     4     1    24 1   
     5     2     6 1   
     6     2    25 1   
     7     2    26 1   
     8     3     4 1   
     9     3     6 1   
    10     3    27 1   
    11     3    28 1   
    12     4     5 1   
    13     4    29 1   
    14     4    30 1   
    15     5    12 1   
    16     5    31 1   
    17     6     8 1   
    18     7     8 2   
    19     8     9 1   
    20     9    10 1   
    21     9    32 1   
    22     9    33 1   
    23    10    11 3   
    24    12    34 1   
    25    12    35 1   
    26    12    36 1   
    27    13    14 1   
    28    13    15 1   
    29    14    37 1   
    30    14    38 1   
    31    14    39 1   
    32    15    16 ar  
    33    15    23 ar  
    34    16    17 1   
    35    16    20 ar  
    36    17    18 2   
    37    17    40 1   
    38    18    19 1   
    39    18    41 1   
    40    19    20 1   
    41    19    43 1   
    42    20    21 ar  
    43    21    22 ar  
    44    22    23 ar  
    45    22    42 1   
@<TRIPOS>SUBSTRUCTURE
     1 MI1         1 TEMP              0 ****  ****    0 ROOT
