@<TRIPOS>MOLECULE
molecule
   35    37     1     0     0
SMALL
bcc


@<TRIPOS>ATOM
      1 C1           0.0000     0.0000     0.0000 ca         1 MI2      -0.090800
      2 C2           1.4210     0.0000     0.0000 ca         1 MI2      -0.036200
      3 N3           1.8550     0.0000     1.2680 na         1 MI2      -0.109400
      4 C4           0.7770     0.0060     2.0810 cc         1 MI2       0.027700
      5 C5          -0.3940     0.0050     1.3260 cd         1 MI2      -0.194200
      6 C6           0.8500     0.0170     3.5860 ca         1 MI2      -0.079800
      7 C7           0.0080    -0.9020     4.2910 ca         1 MI2      -0.097000
      8 C8           0.0250    -0.9430     5.7110 ca         1 MI2      -0.131000
      9 C9           0.8750    -0.0740     6.4400 ca         1 MI2      -0.100000
     10 C10          1.7140     0.8400     5.7480 ca         1 MI2      -0.126000
     11 C11          1.7210     0.9070     4.3190 ca         1 MI2      -0.064300
     12 C12          2.6400     1.9040     3.6710 c3         1 MI2      -0.048800
     13 C13          2.1310    -0.0030    -1.2410 ca         1 MI2      -0.114000
     14 C14          1.3750     0.0020    -2.4500 ca         1 MI2      -0.064000
     15 C15         -0.0550     0.0060    -2.4110 ca         1 MI2      -0.223900
     16 C16         -0.7850     0.0040    -1.1860 ca         1 MI2      -0.063000
     17 C17         -0.7970     0.0230    -3.6660 ce         1 MI2       0.518800
     18 N18         -0.3430     0.8420    -4.7300 n2         1 MI2      -0.665100
     19 N19         -1.9680    -0.7530    -3.8220 nz         1 MI2      -0.795600
     20 HN3          2.8120    -0.0010     1.5620 hn         1 MI2       0.325700
     21 H5          -1.4100     0.0090     1.7030 ha         1 MI2       0.171000
     22 H7          -0.6440    -1.5690     3.7400 ha         1 MI2       0.138000
     23 H8          -0.6150    -1.6400     6.2390 ha         1 MI2       0.145000
     24 H9           0.8850    -0.1070     7.5220 ha         1 MI2       0.147000
     25 H10          2.3600     1.5010     6.3130 ha         1 MI2       0.144000
     26 H121         3.0420     2.5690     4.4270 hc         1 MI2       0.048367
     27 H122         2.0880     2.4810     2.9390 hc         1 MI2       0.048367
     28 H123         3.4520     1.3810     3.1810 hc         1 MI2       0.048367
     29 H13          3.2140    -0.0060    -1.2620 ha         1 MI2       0.159000
     30 H14          1.8870     0.0040    -3.4050 ha         1 MI2       0.160000
     31 H16         -1.8680     0.0070    -1.1600 ha         1 MI2       0.128000
     32 HN18        -0.8480     0.8660    -5.5940 hn         1 MI2       0.407400
     33 H191        -1.8990    -1.5770    -3.2580 hn         1 MI2       0.461800
     34 H192        -2.0700    -1.0130    -4.7830 hn         1 MI2       0.461800
     35 H193        -2.7640    -0.2170    -3.5350 hn         1 MI2       0.461800
@<TRIPOS>BOND
     1     1     2 ar
     2     1     5 1
     3     1    16 ar
     4     2     3 1
     5     2    13 ar
     6     3     4 1
     7     3    20 1
     8     4     5 2
     9     4     6 1
    10     5    21 1
    11     6     7 ar
    12     6    11 ar
    13     7     8 ar
    14     7    22 1
    15     8     9 ar
    16     8    23 1
    17     9    10 ar
    18     9    24 1
    19    10    11 ar
    20    10    25 1
    21    11    12 1
    22    12    26 1
    23    12    27 1
    24    12    28 1
    25    13    14 ar
    26    13    29 1
    27    14    15 ar
    28    14    30 1
    29    15    16 ar
    30    15    17 1
    31    16    31 1
    32    17    18 2
    33    17    19 1
    34    18    32 1
    35    19    33 1
    36    19    34 1
    37    35    19 1
@<TRIPOS>SUBSTRUCTURE
     1 MI2         1 TEMP              0 ****  ****    0 ROOT
