@<TRIPOS>MOLECULE
MI5
   50    54     1     0     0
SMALL
bcc


@<TRIPOS>ATOM
      1 C01          0.0000     0.0000     0.0000 cc         1 MI5      -0.222800
      2 C02          1.3980     0.0000     0.0000 cd         1 MI5       0.199500
      3 N03          1.7930     0.0000     1.3130 na         1 MI5       0.513200
      4 N04          0.6430    -0.0000     2.1090 nd         1 MI5      -0.728100
      5 C05         -0.4160     0.0060     1.3340 cc         1 MI5       0.494500
      6 N06          2.3040    -0.0010    -0.9850 nd         1 MI5      -0.520000
      7 C07          3.5930    -0.0000    -0.7210 cc         1 MI5       0.392600
      8 C08          4.0430    -0.0000     0.6000 cc         1 MI5      -0.256300
      9 C09          3.1300    -0.0010     1.6190 cd         1 MI5      -0.078700
     10 N10          3.5480    -0.0000     2.9340 nu         1 MI5      -0.153000
     11 C11          4.5890    -0.0010    -1.8520 c3         1 MI5      -0.094000
     12 C12         -0.8790    -0.0010    -1.1960 cc         1 MI5      -0.224100
     13 C13          5.3850    -1.3080    -1.8320 c3         1 MI5       0.149800
     14 N14          6.3400    -1.3170    -2.9470 n7         1 MI5      -0.579200
     15 C15          5.6490    -1.2500    -4.2410 c3         1 MI5       0.144800
     16 C16          4.8610     0.0590    -4.3310 c3         1 MI5      -0.025400
     17 C17          3.8480     0.1200    -3.1860 c3         1 MI5      -0.023400
     18 C18         -0.7830     0.8690    -2.3000 cc         1 MI5       0.412200
     19 N19         -1.7300     0.5590    -3.1470 nd         1 MI5      -0.656800
     20 N20         -2.4620    -0.5130    -2.6220 na         1 MI5       0.484400
     21 C21         -1.9230    -0.8470    -1.4290 cd         1 MI5      -0.248300
     22 C22         -3.6090    -1.1640    -3.2600 c3         1 MI5       0.025600
     23 C23          3.1410    -1.0160     3.7940 cc         1 MI5       0.110500
     24 S24          2.2550    -2.4340     3.3880 ss         1 MI5      -0.024800
     25 N25          2.2090    -3.0630     4.9620 nc         1 MI5      -0.407100
     26 C26          2.8370    -2.2230     5.7320 cd         1 MI5       0.410600
     27 C27          3.3630    -1.1000     5.1330 cd         1 MI5      -0.353300
     28 C28          2.9870    -2.4700     7.2110 c3         1 MI5      -0.028400
     29 H05         -1.4450     0.0150     1.6730 h4         1 MI5       0.016800
     30 H08          5.1050     0.0000     0.8160 ha         1 MI5       0.140000
     31 HN10         4.1370     0.7350     3.2710 hn         1 MI5       0.296800
     32 H11          5.2680     0.8350    -1.7420 hc         1 MI5       0.048700
     33 H13          5.9240    -1.3860    -0.8960 h1         1 MI5       0.009200
     34 H13A         4.7050    -2.1450    -1.9340 h1         1 MI5       0.009200
     35 HN14         6.8920    -2.1520    -2.9060 hn         1 MI5       0.252800
     36 H15          4.9670    -2.0870    -4.3280 h1         1 MI5       0.006700
     37 H15A         6.3780    -1.2880    -5.0410 h1         1 MI5       0.006700
     38 H16          5.5440     0.8960    -4.2540 hc         1 MI5       0.020200
     39 H16A         4.3380     0.0990    -5.2790 hc         1 MI5       0.020200
     40 H17          3.3210     1.0660    -3.2220 hc         1 MI5       0.029700
     41 H17A         3.1440    -0.6970    -3.2830 hc         1 MI5       0.029700
     42 H18         -0.0520     1.6580    -2.4250 h4         1 MI5       0.007100
     43 H21         -2.2640    -1.6390    -0.7720 h4         1 MI5       0.147000
     44 H22         -3.3900    -2.2140    -3.4120 h1         1 MI5       0.020033
     45 H22A        -4.4800    -1.0650    -2.6240 h1         1 MI5       0.020033
     46 H22B        -3.8050    -0.6940    -4.2170 h1         1 MI5       0.020033
     47 H27          3.9030    -0.3410     5.6850 ha         1 MI5       0.137000
     48 H28          2.5330    -1.6550     7.7610 hc         1 MI5       0.016700
     49 H28A         2.4980    -3.4000     7.4730 hc         1 MI5       0.016700
     50 H28B         4.0390    -2.5320     7.4610 hc         1 MI5       0.016700
@<TRIPOS>BOND
     1     1     2 2   
     2     1     5 1   
     3     1    12 1   
     4     2     3 1   
     5     2     6 1   
     6     3     4 1   
     7     3     9 1   
     8     4     5 2   
     9     5    29 1   
    10     6     7 2   
    11     7     8 1   
    12     7    11 1   
    13     8     9 2   
    14     8    30 1   
    15     9    10 1   
    16    10    23 1   
    17    10    31 1   
    18    11    13 1   
    19    11    17 1   
    20    11    32 1   
    21    12    18 1   
    22    12    21 2   
    23    13    14 1   
    24    13    33 1   
    25    13    34 1   
    26    14    15 1   
    27    14    35 1   
    28    15    16 1   
    29    15    36 1   
    30    15    37 1   
    31    16    17 1   
    32    16    38 1   
    33    16    39 1   
    34    17    40 1   
    35    17    41 1   
    36    18    19 2   
    37    18    42 1   
    38    19    20 1   
    39    20    21 1   
    40    20    22 1   
    41    21    43 1   
    42    22    44 1   
    43    22    45 1   
    44    22    46 1   
    45    23    24 1   
    46    23    27 2   
    47    24    25 1   
    48    25    26 2   
    49    26    27 1   
    50    26    28 1   
    51    27    47 1   
    52    28    48 1   
    53    28    49 1   
    54    28    50 1   
@<TRIPOS>SUBSTRUCTURE
     1 MI5         1 TEMP              0 ****  ****    0 ROOT
