@<TRIPOS>MOLECULE
molecule
   74    78     1     0     0
SMALL
bcc


@<TRIPOS>ATOM
      1 C1           0.0000     0.0000     0.0000 ca         1 MI6       0.053600
      2 C2           1.3930     0.0000     0.0000 ca         1 MI6      -0.157000
      3 C3           2.0860     0.0000     1.1940 ca         1 MI6       0.060400
      4 Cl4          3.8220    -0.0010     1.1850 cl         1 MI6      -0.102400
      5 C5           1.4040     0.0010     2.3980 ca         1 MI6      -0.144000
      6 C6           0.0200     0.0010     2.4050 ca         1 MI6      -0.085000
      7 C7          -0.6750     0.0000     1.2170 ca         1 MI6      -0.119300
      8 C8          -2.1380    -0.0010     0.8750 c3         1 MI6      -0.098700
      9 C9          -2.1880    -0.0020    -0.6290 c          1 MI6       0.719500
     10 O10         -3.1840    -0.0040    -1.3200 o          1 MI6      -0.603500
     11 N11         -0.9120    -0.0050    -1.0590 ns         1 MI6      -0.459100
     12 C12         -2.8510    -1.2280     1.4590 c3         1 MI6       0.171500
     13 C13         -1.8410    -2.3310     1.7770 c3         1 MI6      -0.059400
     14 C14         -2.5890    -3.6090     2.1690 c3         1 MI6      -0.073000
     15 C15         -3.3440    -4.1500     0.9550 c3         1 MI6      -0.086767
     16 C16         -1.5850    -4.6570     2.6560 c3         1 MI6      -0.086767
     17 C17         -3.5820    -3.2950     3.2890 c3         1 MI6      -0.086767
     18 N18         -3.4840    -0.7260     2.7090 n7         1 MI6      -0.762200
     19 C19         -3.9670     0.6350     2.3560 c3         1 MI6       0.073500
     20 C20         -4.1340     1.4710     3.6000 c          1 MI6       0.660100
     21 O21         -4.0660     0.9520     4.6930 o          1 MI6      -0.572100
     22 N22         -4.3610     2.7950     3.4960 ns         1 MI6      -0.591900
     23 C23         -4.5240     3.6080     4.7040 c3         1 MI6       0.112000
     24 C24         -4.7670     5.0660     4.3090 c3         1 MI6       0.145800
     25 C31         -2.8540     1.2230     1.4580 c3         1 MI6       0.009600
     26 C32         -1.8980     2.0490     2.2780 ca         1 MI6      -0.118300
     27 C33         -1.5430     1.6370     3.5500 ca         1 MI6       0.151900
     28 F34         -2.0530     0.4930     4.0580 f          1 MI6      -0.071900
     29 C35         -0.6630     2.3980     4.3040 ca         1 MI6      -0.021600
     30 Cl36        -0.2160     1.8820     5.9000 cl         1 MI6      -0.080400
     31 C37         -0.1410     3.5670     3.7830 ca         1 MI6      -0.096000
     32 C38         -0.4980     3.9780     2.5120 ca         1 MI6      -0.137000
     33 C39         -1.3700     3.2160     1.7580 ca         1 MI6      -0.097000
     34 H2           1.9330    -0.0050    -0.9390 ha         1 MI6       0.145000
     35 H5           1.9510     0.0010     3.3330 ha         1 MI6       0.153000
     36 H6          -0.5170     0.0010     3.3470 ha         1 MI6       0.182000
     37 HN11        -0.6470    -0.0060    -2.0240 hn         1 MI6       0.339500
     38 H12         -3.6080    -1.5850     0.7710 h1         1 MI6       0.054700
     39 H13         -1.2090    -2.0160     2.5990 hc         1 MI6       0.059700
     40 H13A        -1.2300    -2.5240     0.9040 hc         1 MI6       0.059700
     41 H15         -3.6630    -5.1670     1.1520 hc         1 MI6       0.037700
     42 H15A        -2.6930    -4.1380     0.0890 hc         1 MI6       0.037700
     43 H15B        -4.2120    -3.5310     0.7630 hc         1 MI6       0.037700
     44 H16         -1.0930    -4.2980     3.5510 hc         1 MI6       0.037700
     45 H16A        -0.8460    -4.8350     1.8840 hc         1 MI6       0.037700
     46 H16B        -2.1060    -5.5810     2.8760 hc         1 MI6       0.037700
     47 H17         -4.4990    -2.9080     2.8610 hc         1 MI6       0.037700
     48 H17A        -3.7970    -4.2000     3.8450 hc         1 MI6       0.037700
     49 H17B        -3.1540    -2.5560     3.9550 hc         1 MI6       0.037700
     50 HN18        -4.2650    -1.3060     2.9430 hn         1 MI6       0.376800
     51 H19         -4.8990     0.5730     1.8080 h1         1 MI6       0.056700
     52 HN22        -4.4710     3.2130     2.5930 hn         1 MI6       0.309500
     53 H23         -5.3690     3.2430     5.2740 h1         1 MI6       0.062200
     54 H23A        -3.6260     3.5420     5.3070 h1         1 MI6       0.062200
     55 H24         -5.6640     5.1320     3.7060 h1         1 MI6       0.036700
     56 H24A        -3.9210     5.4320     3.7400 h1         1 MI6       0.036700
     57 H31         -3.2890     1.8170     0.6630 hc         1 MI6       0.076700
     58 H37          0.5450     4.1640     4.3730 ha         1 MI6       0.150000
     59 H38         -0.0870     4.8930     2.1030 ha         1 MI6       0.141000
     60 H39         -1.6490     3.5390     0.7620 ha         1 MI6       0.138000
     61 N25         -4.9300     5.8810     5.5210 n3         1 MI6      -0.723600
     62 C29         -5.6120     8.0270     6.4780 c3         1 MI6       0.139900
     63 O28         -4.3940     8.0460     7.2270 os         1 MI6      -0.425600
     64 C27         -3.9090     6.7450     7.5710 c3         1 MI6       0.139900
     65 C26         -3.6780     5.9380     6.2900 c3         1 MI6       0.121300
     66 C30         -5.3980     7.2330     5.1870 c3         1 MI6       0.121300
     67 H29A        -5.9010     9.0420     6.2330 h1         1 MI6       0.055200
     68 H29B        -6.3900     7.5560     7.0660 h1         1 MI6       0.055200
     69 H27A        -4.6410     6.2390     8.1880 h1         1 MI6       0.055200
     70 H27B        -2.9750     6.8390     8.1110 h1         1 MI6       0.055200
     71 H26A        -2.9110     6.4180     5.6940 h1         1 MI6       0.044700
     72 H26B        -3.3670     4.9330     6.5480 h1         1 MI6       0.044700
     73 H30A        -6.3340     7.1680     4.6450 h1         1 MI6       0.044700
     74 H30B        -4.6550     7.7320     4.5760 h1         1 MI6       0.044700
@<TRIPOS>BOND
     1     1     2 ar
     2     1     7 ar
     3     1    11 1
     4     2     3 ar
     5     2    34 1
     6     3     4 1
     7     3     5 ar
     8     5     6 ar
     9     5    35 1
    10     6     7 ar
    11     6    36 1
    12     7     8 1
    13     8     9 1
    14     8    12 1
    15     8    25 1
    16     9    10 2
    17     9    11 1
    18    11    37 1
    19    12    13 1
    20    12    18 1
    21    12    38 1
    22    13    14 1
    23    13    39 1
    24    13    40 1
    25    14    15 1
    26    14    16 1
    27    14    17 1
    28    15    41 1
    29    15    42 1
    30    15    43 1
    31    16    44 1
    32    16    45 1
    33    16    46 1
    34    17    47 1
    35    17    48 1
    36    17    49 1
    37    18    19 1
    38    18    50 1
    39    19    20 1
    40    19    25 1
    41    19    51 1
    42    20    21 2
    43    20    22 1
    44    22    23 1
    45    22    52 1
    46    23    24 1
    47    23    53 1
    48    23    54 1
    49    24    55 1
    50    24    56 1
    51    25    26 1
    52    25    57 1
    53    26    27 ar
    54    26    33 ar
    55    27    28 1
    56    27    29 ar
    57    29    30 1
    58    29    31 ar
    59    31    32 ar
    60    31    58 1
    61    32    33 ar
    62    32    59 1
    63    33    60 1
    64    24    61 1
    65    65    61 1
    66    61    66 1
    67    62    63 1
    68    63    64 1
    69    64    65 1
    70    62    66 1
    71    62    67 1
    72    62    68 1
    73    64    69 1
    74    64    70 1
    75    65    71 1
    76    65    72 1
    77    66    73 1
    78    66    74 1
@<TRIPOS>SUBSTRUCTURE
     1 MI6         1 TEMP              0 ****  ****    0 ROOT
