@<TRIPOS>MOLECULE
molecule
   28    29     1     0     0
SMALL
bcc


@<TRIPOS>ATOM
      1 O1           0.0000     0.0000     0.0000 o          1 MIB      -0.560100
      2 CO           1.2160     0.0000     0.0000 c          1 MIB       0.572300
      3 CM           1.9690     0.0000     1.3060 c3         1 MIB      -0.191100
      4 CA           1.9180    -0.0000    -1.2130 ce         1 MIB      -0.328200
      5 CB           1.2380    -0.0000    -2.3920 cf         1 MIB       0.040000
      6 CG           1.9480    -0.0000    -3.6200 cd         1 MIB      -0.165200
      7 CD1          3.3170    -0.0000    -3.7830 cc         1 MIB      -0.053100
      8 CD2          1.3700    -0.0010    -4.9780 ca         1 MIB      -0.075800
      9 NE1          3.6140    -0.0010    -5.1050 na         1 MIB      -0.055400
     10 CN1          4.9720    -0.0010    -5.6540 c3         1 MIB       0.034600
     11 CE2          2.4590     0.0050    -5.8610 ca         1 MIB      -0.047200
     12 CE3          0.0680     0.0000    -5.4720 ca         1 MIB      -0.083000
     13 CZ2          2.2250    -0.0020    -7.2330 ca         1 MIB      -0.136000
     14 CZ3         -0.1440    -0.0000    -6.8340 ca         1 MIB      -0.146000
     15 CH2          0.9310    -0.0010    -7.7090 ca         1 MIB      -0.111000
     16 HM1          2.5920     0.8840     1.3640 hc         1 MIB       0.055700
     17 HM2          2.5910    -0.8850     1.3640 hc         1 MIB       0.055700
     18 HM3          1.2640     0.0000     2.1290 hc         1 MIB       0.055700
     19 HA           3.0010    -0.0000    -1.2120 ha         1 MIB       0.122000
     20 HB           0.1550    -0.0000    -2.3930 ha         1 MIB       0.156000
     21 HD1          4.0430     0.0010    -2.9790 h4         1 MIB       0.174000
     22 HN1          5.6900    -0.0020    -4.8430 h1         1 MIB       0.052700
     23 HN2          5.1150    -0.8850    -6.2640 h1         1 MIB       0.052700
     24 HN3          5.1160     0.8840    -6.2630 h1         1 MIB       0.052700
     25 HE3         -0.7740     0.0010    -4.7890 ha         1 MIB       0.137000
     26 HZ2          3.0570    -0.0030    -7.9260 ha         1 MIB       0.126000
     27 HZ3         -1.1550     0.0010    -7.2220 ha         1 MIB       0.133000
     28 HH2          0.7530    -0.0010    -8.7770 ha         1 MIB       0.132000
@<TRIPOS>BOND
     1     1     2 2
     2     2     3 1
     3     2     4 1
     4     3    16 1
     5     3    17 1
     6     3    18 1
     7     4     5 2
     8     4    19 1
     9     5     6 1
    10     5    20 1
    11     6     7 2
    12     6     8 1
    13     7     9 1
    14     7    21 1
    15     8    11 ar
    16     8    12 ar
    17     9    10 1
    18     9    11 1
    19    10    22 1
    20    10    23 1
    21    10    24 1
    22    11    13 ar
    23    12    14 ar
    24    12    25 1
    25    13    15 ar
    26    13    26 1
    27    14    15 ar
    28    14    27 1
    29    15    28 1
@<TRIPOS>SUBSTRUCTURE
     1 MIB         1 TEMP              0 ****  ****    0 ROOT
