@<TRIPOS>MOLECULE
MIB
   28    29     1     0     0
SMALL
bcc


@<TRIPOS>ATOM
      1 O1         -0.1710   -0.2010    0.0670 o         1 MIB     -0.552100
      2 CO          1.0630   -0.0850    0.0630 c         1 MIB      0.568300
      3 CM          1.8490   -0.0090    1.3340 c3        1 MIB     -0.196100
      4 CA          1.8590   -0.0120   -1.1670 ce        1 MIB     -0.304200
      5 CB          1.2960   -0.0670   -2.3890 cf        1 MIB      0.017000
      6 CG          2.0090   -0.0020   -3.6240 cd        1 MIB     -0.140200
      7 CD1         3.3930    0.1250   -3.8130 cc        1 MIB     -0.060100
      8 CD2         1.4110   -0.0560   -4.9470 ca        1 MIB     -0.071800
      9 NE1         3.6960    0.1660   -5.1720 na        1 MIB     -0.070400
     10 CN1         5.0040    0.2200   -5.7350 c3        1 MIB      0.027600
     11 CE2         2.4970    0.0450   -5.8950 ca        1 MIB     -0.050200
     12 CE3         0.1020   -0.1740   -5.4140 ca        1 MIB     -0.085000
     13 CZ2         2.2550    0.0250   -7.2770 ca        1 MIB     -0.137000
     14 CZ3        -0.1230   -0.1930   -6.7830 ca        1 MIB     -0.148000
     15 CH2         0.9390   -0.0950   -7.6990 ca        1 MIB     -0.115000
     16 HM1         1.1740   -0.0710    2.2210 hc        1 MIB      0.060033
     17 HM2         2.4120    0.9550    1.3720 hc        1 MIB      0.060033
     18 HM3         2.5820   -0.8520    1.3750 hc        1 MIB      0.060033
     19 HA          2.9450    0.0900   -1.0320 ha        1 MIB      0.124000
     20 HB          0.1950   -0.1700   -2.4780 ha        1 MIB      0.148000
     21 HD1         4.1840    0.1970   -3.0620 h4        1 MIB      0.169000
     22 HN1         5.7170    0.6690   -4.9940 h1        1 MIB      0.052700
     23 HN2         5.3600   -0.8120   -6.0050 h1        1 MIB      0.052700
     24 HN3         4.9890    0.8510   -6.6640 h1        1 MIB      0.052700
     25 HE3        -0.7330   -0.2500   -4.7020 ha        1 MIB      0.140000
     26 HZ2         3.0790    0.1010   -7.9970 ha        1 MIB      0.133000
     27 HZ3        -1.1500   -0.2860   -7.1650 ha        1 MIB      0.133000
     28 HH2         0.7180   -0.1140   -8.7770 ha        1 MIB      0.131000
@<TRIPOS>BOND
     1    1    2 2   
     2    2    3 1   
     3    2    4 1   
     4    3   16 1   
     5    3   17 1   
     6    3   18 1   
     7    4    5 2   
     8    4   19 1   
     9    5    6 1   
    10    5   20 1   
    11    6    7 2   
    12    6    8 1   
    13    7    9 1   
    14    7   21 1   
    15    8   11 ar  
    16    8   12 ar  
    17    9   10 1   
    18    9   11 1   
    19   10   22 1   
    20   10   23 1   
    21   10   24 1   
    22   11   13 ar  
    23   12   14 ar  
    24   12   25 1   
    25   13   15 ar  
    26   13   26 1   
    27   14   15 ar  
    28   14   27 1   
    29   15   28 1   
@<TRIPOS>SUBSTRUCTURE
     1 MIB         1 TEMP              0 ****  ****    0 ROOT
