@<TRIPOS>MOLECULE
MIC
   21    20     1     0     0
SMALL
bcc


@<TRIPOS>ATOM
      1 C1          1.4350    0.0320    0.5240 c         1 MIC      0.902600
      2 O1          2.0700   -1.0480    0.3090 o         1 MIC     -0.888800
      3 O2          1.9760    0.9920    1.1570 o         1 MIC     -0.888800
      4 C2         -0.0640    0.1170    0.1110 c3        1 MIC      0.077800
      5 CM2        -0.8450    0.5190    1.3630 c3        1 MIC     -0.075100
      6 O7         -0.5190   -1.1970   -0.2220 oh        1 MIC     -0.653800
      7 C3         -0.3550    1.1060   -1.0390 c3        1 MIC     -0.150700
      8 C4         -1.8530    1.2880   -1.2860 c3        1 MIC     -0.145400
      9 C5         -2.6190    2.3490   -0.4960 c         1 MIC      0.901600
     10 O3         -2.2530    3.5660   -0.4780 o         1 MIC     -0.906800
     11 O4         -3.7140    2.0090    0.0710 o         1 MIC     -0.906800
     12 C6          0.2620    0.6730   -2.3900 c         1 MIC      0.919600
     13 O5          0.0490   -0.4920   -2.8600 o         1 MIC     -0.897300
     14 O6          0.9280    1.5200   -3.0660 o         1 MIC     -0.897300
     15 HM21       -0.4760    1.5160    1.7020 hc        1 MIC      0.021700
     16 HM22       -0.6720   -0.2300    2.1730 hc        1 MIC      0.021700
     17 HM23       -1.9380    0.5780    1.1480 hc        1 MIC      0.021700
     18 HO7         0.0070   -1.4540   -0.9950 ho        1 MIC      0.433000
     19 H3          0.0960    2.0920   -0.7490 hc        1 MIC      0.068700
     20 H41        -1.9940    1.5670   -2.3660 hc        1 MIC      0.020700
     21 H42        -2.3550    0.2970   -1.1280 hc        1 MIC      0.020700
@<TRIPOS>BOND
     1    1    2 1   
     2    1    3 1   
     3    1    4 1   
     4    4    5 1   
     5    4    6 1   
     6    4    7 1   
     7    5   15 1   
     8    5   16 1   
     9    5   17 1   
    10    6   18 1   
    11    7    8 1   
    12    7   12 1   
    13    7   19 1   
    14    8    9 1   
    15    8   20 1   
    16    8   21 1   
    17    9   10 1   
    18    9   11 1   
    19   12   13 1   
    20   12   14 1   
@<TRIPOS>SUBSTRUCTURE
     1 MIC         1 TEMP              0 ****  ****    0 ROOT
