@<TRIPOS>MOLECULE
molecule
   21    20     1     0     0
SMALL
bcc


@<TRIPOS>ATOM
      1 C1           1.5070     0.0000     0.0000 c          1 MIC       0.915600
      2 O1           2.1100    -0.9060    -0.5220 o          1 MIC      -0.885300
      3 O2           2.1770     1.0060     0.5810 o          1 MIC      -0.885300
      4 C2           0.0000     0.0000     0.0000 c3         1 MIC       0.070800
      5 CM2         -0.5100     0.0000     1.4430 c3         1 MIC      -0.101100
      6 O7          -0.4760    -1.1670    -0.6730 oh         1 MIC      -0.574800
      7 C3          -0.5100     1.2480    -0.7210 c3         1 MIC      -0.120700
      8 C4          -2.0400     1.2480    -0.7200 c3         1 MIC      -0.152400
      9 C5          -2.5430     2.5600    -1.2670 c          1 MIC       0.898600
     10 O3          -1.7680     3.4610    -1.4810 o          1 MIC      -0.881300
     11 O4          -3.8510     2.7260    -1.5160 o          1 MIC      -0.881300
     12 C6          -0.0080     1.2480    -2.1410 c          1 MIC       0.908600
     13 O5           0.6820     0.3400    -2.5380 o          1 MIC      -0.865300
     14 O6          -0.3290     2.2560    -2.9670 o          1 MIC      -0.865300
     15 HM21        -0.5530     1.0180     1.8110 hc         1 MIC       0.002367
     16 HM22         0.1620    -0.5800     2.0630 hc         1 MIC       0.002367
     17 HM23        -1.5010    -0.4380     1.4760 hc         1 MIC       0.002367
     18 HO7         -0.2420    -1.9340    -0.1770 ho         1 MIC       0.337000
     19 H3          -0.1490     2.1330    -0.2110 hc         1 MIC       0.072700
     20 H41         -2.4010     0.4360    -1.3400 hc         1 MIC       0.001200
     21 H42         -2.4000     1.1170     0.2930 hc         1 MIC       0.001200
@<TRIPOS>BOND
     1     1     2 1
     2     1     3 1
     3     1     4 1
     4     4     5 1
     5     4     6 1
     6     4     7 1
     7     5    15 1
     8     5    16 1
     9     5    17 1
    10     6    18 1
    11     7     8 1
    12     7    12 1
    13     7    19 1
    14     8     9 1
    15     8    20 1
    16     8    21 1
    17     9    10 1
    18     9    11 1
    19    12    13 1
    20    12    14 1
@<TRIPOS>SUBSTRUCTURE
     1 MIC         1 TEMP              0 ****  ****    0 ROOT
