@<TRIPOS>MOLECULE
molecule
   29    30     1     0     0
SMALL
bcc


@<TRIPOS>ATOM
      1 C2           0.0000     0.0000     0.0000 c3         1 MIF       0.135100
      2 O2          -0.4770    -0.0960    -1.3430 oh         1 MIF      -0.592800
      3 C3           1.5330     0.0000     0.0000 c3         1 MIF       0.113100
      4 O3           2.0110     1.1670    -0.6710 oh         1 MIF      -0.605800
      5 C4           2.0310     0.0000     1.4480 c3         1 MIF       0.113100
      6 C1          -0.5020    -1.1940     0.8060 c3         1 MIF       0.124900
      7 O4           3.4590    -0.0610     1.4620 oh         1 MIF      -0.593800
      8 C5           1.4600    -1.2170     2.1800 c3         1 MIF       0.122100
      9 C6           1.9150    -1.1950     3.6400 c3         1 MIF       0.154400
     10 O6           1.4800    -2.3890     4.2930 oh         1 MIF      -0.599800
     11 O5           0.0310    -1.1770     2.1250 os         1 MIF      -0.358600
     12 C8          -2.4930    -2.7420     0.0400 c2         1 MIF       0.514800
     13 S1          -2.3220    -1.1820     0.8670 ss         1 MIF      -0.116300
     14 N1          -1.2310    -3.1990    -0.2410 ns         1 MIF      -0.511400
     15 C7          -0.1710    -2.4870     0.1080 c          1 MIF       0.701500
     16 O7           0.9660    -2.8430    -0.1170 o          1 MIF      -0.595500
     17 H1          -1.1110    -4.0750    -0.7100 hn         1 MIF       0.339500
     18 H21         -3.6000    -4.2260    -0.7190 hn         1 MIF       0.411400
     19 H2          -0.3600     0.9160     0.4520 h1         1 MIF       0.069700
     20 H5           1.8120    -2.1230     1.7010 h1         1 MIF       0.099700
     21 H61C         1.4870    -0.3340     4.1390 h1         1 MIF       0.037200
     22 H62C         2.9960    -1.1350     3.6810 h1         1 MIF       0.037200
     23 H4           1.6990     0.9050     1.9430 h1         1 MIF       0.050700
     24 H6           1.8320    -2.4160     5.1680 ho         1 MIF       0.405000
     25 HA           3.8080     0.7820     1.7010 ho         1 MIF       0.412000
     26 H3           1.8940    -0.8880    -0.5050 h1         1 MIF       0.091700
     27 HB           2.5420     0.9110    -1.4070 ho         1 MIF       0.419000
     28 HC          -0.9570     0.6860    -1.5630 ho         1 MIF       0.422000
     29 N2          -3.6130    -3.3430    -0.2480 n2         1 MIF      -0.799100
@<TRIPOS>BOND
     1    16    15 2
     2    15    14 1
     3    15     6 1
     4    14    12 1
     5    12    29 2
     6    12    13 1
     7    13     6 1
     8     6    11 1
     9     6     1 1
    10    11     8 1
    11     8     9 1
    12     8     5 1
    13     9    10 1
    14     5     7 1
    15     5     3 1
    16     3     4 1
    17     3     1 1
    18     1     2 1
    19    14    17 1
    20    29    18 1
    21     1    19 1
    22     8    20 1
    23     9    21 1
    24     9    22 1
    25     5    23 1
    26    10    24 1
    27     7    25 1
    28     3    26 1
    29     4    27 1
    30     2    28 1
@<TRIPOS>SUBSTRUCTURE
     1 MIF         1 TEMP              0 ****  ****    0 ROOT
