@<TRIPOS>MOLECULE
MIF
   29    30     1     0     0
SMALL
bcc


@<TRIPOS>ATOM
      1 C2           0.0000     0.0000     0.0000 c3         1 MIF       0.176100
      2 O2          -0.4770    -0.0960    -1.3430 oh         1 MIF      -0.577800
      3 C3           1.5330     0.0000     0.0000 c3         1 MIF       0.135100
      4 O3           2.0110     1.1670    -0.6710 oh         1 MIF      -0.585800
      5 C4           2.0310     0.0000     1.4480 c3         1 MIF       0.152100
      6 C1          -0.5020    -1.1940     0.8060 c3         1 MIF       0.177900
      7 O4           3.4590    -0.0610     1.4620 oh         1 MIF      -0.573800
      8 C5           1.4600    -1.2170     2.1800 c3         1 MIF       0.127100
      9 C6           1.9150    -1.1950     3.6400 c3         1 MIF       0.229400
     10 O6           1.4800    -2.3890     4.2930 oh         1 MIF      -0.582800
     11 O5           0.0310    -1.1770     2.1250 os         1 MIF      -0.340600
     12 C8          -2.4930    -2.7420     0.0400 c2         1 MIF       0.351800
     13 S1          -2.3220    -1.1820     0.8670 ss         1 MIF      -0.330300
     14 N1          -1.2310    -3.1990    -0.2410 ns         1 MIF      -0.009400
     15 C7          -0.1710    -2.4870     0.1080 c          1 MIF       0.598500
     16 O7           0.9660    -2.8430    -0.1170 o          1 MIF      -0.628500
     17 H1          -1.1110    -4.0750    -0.7110 hn         1 MIF       0.189500
     18 H21         -4.4860    -2.9220     0.0020 hn         1 MIF       0.347400
     19 H2          -0.3600     0.9160     0.4520 h1         1 MIF       0.035700
     20 H5           1.8120    -2.1230     1.7010 h1         1 MIF       0.071700
     21 H61C         2.9960    -1.1360     3.6810 h1         1 MIF      -0.002300
     22 H62C         1.4870    -0.3340     4.1390 h1         1 MIF      -0.002300
     23 H4           1.6990     0.9050     1.9430 h1         1 MIF       0.016700
     24 H6           1.8390    -2.4200     5.1650 ho         1 MIF       0.390000
     25 HA           3.8070     0.7750     1.7230 ho         1 MIF       0.396000
     26 H3           1.8940    -0.8880    -0.5050 h1         1 MIF       0.061700
     27 HB           2.5420     0.9110    -1.4070 ho         1 MIF       0.404000
     28 HC          -0.9790     0.6740    -1.5540 ho         1 MIF       0.408000
     29 N2          -3.6130    -3.3430    -0.2480 n2         1 MIF      -0.633100
@<TRIPOS>BOND
     1     1     2 1   
     2     1     3 1   
     3     1     6 1   
     4     1    19 1   
     5     2    28 1   
     6     3     4 1   
     7     3     5 1   
     8     3    26 1   
     9     4    27 1   
    10     5     7 1   
    11     5     8 1   
    12     5    23 1   
    13     6    11 1   
    14     6    13 1   
    15     6    15 1   
    16     7    25 1   
    17     8     9 1   
    18     8    11 1   
    19     8    20 1   
    20     9    10 1   
    21     9    21 1   
    22     9    22 1   
    23    10    24 1   
    24    12    13 1   
    25    12    14 1   
    26    12    29 2   
    27    14    15 1   
    28    14    17 1   
    29    15    16 2   
    30    18    29 1   
@<TRIPOS>SUBSTRUCTURE
     1 MIF         1 TEMP              0 ****  ****    0 ROOT
