@<TRIPOS>MOLECULE
MIG
   31    31     1     0     0
SMALL
bcc


@<TRIPOS>ATOM
      1 OAA          0.0000     0.0000     0.0000 oh         1 MIG      -0.568800
      2 OAC          2.4190    -4.8120     1.3880 oh         1 MIG      -0.584800
      3 OAD          0.1340    -5.0650     3.0750 oh         1 MIG      -0.587800
      4 OAE         -1.6050    -2.8070     3.1610 oh         1 MIG      -0.584800
      5 CAF          1.4290     0.0000     0.0000 c3         1 MIG       0.181400
      6 CAG         -0.4170    -0.1820     2.9710 c3         1 MIG       0.223400
      7 CAH          1.9390     0.0000     1.4430 c3         1 MIG       0.108800
      8 CAI          2.1500    -2.4090     1.3450 c3         1 MIG       0.116800
      9 CAJ          1.8890    -3.7040     2.1180 c3         1 MIG       0.177100
     10 CAK          0.3810    -3.8880     2.3040 c3         1 MIG       0.157100
     11 CAL         -0.1890    -2.6690     3.0350 c3         1 MIG       0.180100
     12 CAM          0.1320    -1.4040     2.2340 c3         1 MIG       0.087500
     13 NAN          1.5880    -1.2730     2.0860 n3         1 MIG      -0.526600
     14 HOAA        -0.3140     0.2120    -0.8630 ho         1 MIG       0.377000
     15 HOAB        -0.8220     1.6720     2.4910 ho         1 MIG       0.375000
     16 HOAC         3.2090    -5.1150     1.8050 ho         1 MIG       0.393000
     17 HOAD        -0.3870    -5.6680     2.5700 ho         1 MIG       0.398000
     18 HOAE        -1.8210    -3.0280     4.0520 ho         1 MIG       0.395000
     19 HAF          1.7900     0.8850    -0.5100 h1         1 MIG      -0.009300
     20 HAFA         1.7900    -0.8840    -0.5110 h1         1 MIG      -0.009300
     21 HAG          0.1490    -0.0250     3.8820 h1         1 MIG      -0.003800
     22 HAGA        -1.4590    -0.3460     3.2180 h1         1 MIG      -0.003800
     23 HAH          3.0150     0.1210     1.4460 h1         1 MIG       0.052700
     24 HAHA         1.4820     0.8180     1.9870 h1         1 MIG       0.052700
     25 HAI          1.6800    -2.4710     0.3710 h1         1 MIG       0.021700
     26 HAIA         3.2180    -2.2690     1.2280 h1         1 MIG       0.021700
     27 HAJ          2.3660    -3.6440     3.0890 h1         1 MIG       0.018700
     28 HAK         -0.0930    -3.9790     1.3340 h1         1 MIG       0.022700
     29 HAL          0.2620    -2.5960     4.0180 h1         1 MIG       0.018700
     30 HAM         -0.3240    -1.4750     1.2540 h1         1 MIG       0.069700
     31 OAB         -0.3020     0.9710     2.1340 oh         1 MIG      -0.569800
@<TRIPOS>BOND
     1     1     5 1   
     2     1    14 1   
     3     2     9 1   
     4     2    16 1   
     5     3    10 1   
     6     3    17 1   
     7     4    11 1   
     8     4    18 1   
     9     5     7 1   
    10     5    19 1   
    11     5    20 1   
    12     6    12 1   
    13     6    21 1   
    14     6    22 1   
    15     6    31 1   
    16     7    13 1   
    17     7    23 1   
    18     7    24 1   
    19     8     9 1   
    20     8    13 1   
    21     8    25 1   
    22     8    26 1   
    23     9    10 1   
    24     9    27 1   
    25    10    11 1   
    26    10    28 1   
    27    11    12 1   
    28    11    29 1   
    29    12    13 1   
    30    12    30 1   
    31    15    31 1   
@<TRIPOS>SUBSTRUCTURE
     1 MIG         1 TEMP              0 ****  ****    0 ROOT
