@<TRIPOS>MOLECULE
molecule
   31    31     1     0     0
SMALL
bcc


@<TRIPOS>ATOM
      1 OAA          0.0000     0.0000     0.0000 oh         1 MIG      -0.588800
      2 OAC          2.4190    -4.8120     1.3880 oh         1 MIG      -0.603800
      3 OAD          0.1340    -5.0650     3.0750 oh         1 MIG      -0.606800
      4 OAE         -1.6050    -2.8070     3.1610 oh         1 MIG      -0.603800
      5 CAF          1.4290     0.0000     0.0000 c3         1 MIG       0.101400
      6 CAG         -0.4170    -0.1820     2.9710 c3         1 MIG       0.148400
      7 CAH          1.9390     0.0000     1.4430 c3         1 MIG       0.154800
      8 CAI          2.1500    -2.4090     1.3450 c3         1 MIG       0.136800
      9 CAJ          1.8890    -3.7040     2.1180 c3         1 MIG       0.137100
     10 CAK          0.3810    -3.8880     2.3040 c3         1 MIG       0.128100
     11 CAL         -0.1890    -2.6690     3.0350 c3         1 MIG       0.140100
     12 CAM          0.1320    -1.4040     2.2340 c3         1 MIG       0.162500
     13 NAN          1.5880    -1.2730     2.0860 n3         1 MIG      -0.725600
     14 HOAA        -0.3140     0.2120    -0.8630 ho         1 MIG       0.389000
     15 HOAB        -0.8220     1.6720     2.4910 ho         1 MIG       0.389000
     16 HOAC         3.2090    -5.1150     1.8050 ho         1 MIG       0.407000
     17 HOAD        -0.3870    -5.6680     2.5700 ho         1 MIG       0.412000
     18 HOAE        -1.8210    -3.0280     4.0520 ho         1 MIG       0.409000
     19 HAF          1.7900     0.8850    -0.5100 h1         1 MIG       0.020200
     20 HAFA         1.7900    -0.8840    -0.5110 h1         1 MIG       0.020200
     21 HAG          0.1490    -0.0250     3.8820 h1         1 MIG       0.030700
     22 HAGA        -1.4590    -0.3460     3.2180 h1         1 MIG       0.030700
     23 HAH          3.0150     0.1210     1.4460 h1         1 MIG       0.079200
     24 HAHA         1.4820     0.8180     1.9870 h1         1 MIG       0.079200
     25 HAI          1.6800    -2.4710     0.3710 h1         1 MIG       0.046200
     26 HAIA         3.2180    -2.2690     1.2280 h1         1 MIG       0.046200
     27 HAJ          2.3660    -3.6440     3.0890 h1         1 MIG       0.054700
     28 HAK         -0.0930    -3.9790     1.3340 h1         1 MIG       0.057700
     29 HAL          0.2620    -2.5960     4.0180 h1         1 MIG       0.052700
     30 HAM         -0.3240    -1.4750     1.2540 h1         1 MIG       0.085700
     31 OAB         -0.3020     0.9710     2.1340 oh         1 MIG      -0.591800
@<TRIPOS>BOND
     1     1     5 1
     2    31     6 1
     3     2     9 1
     4     3    10 1
     5     4    11 1
     6     5     7 1
     7     6    12 1
     8     7    13 1
     9     8     9 1
    10     8    13 1
    11     9    10 1
    12    10    11 1
    13    11    12 1
    14    12    13 1
    15     1    14 1
    16    31    15 1
    17     2    16 1
    18     3    17 1
    19     4    18 1
    20     5    19 1
    21     5    20 1
    22     6    21 1
    23     6    22 1
    24     7    23 1
    25     7    24 1
    26     8    25 1
    27     8    26 1
    28     9    27 1
    29    10    28 1
    30    11    29 1
    31    12    30 1
@<TRIPOS>SUBSTRUCTURE
     1 MIG         1 TEMP              0 ****  ****    0 ROOT
