@<TRIPOS>MOLECULE
molecule
   52    56     1     0     0
SMALL
bcc


@<TRIPOS>ATOM
      1 CAA          0.0000     0.0000     0.0000 ca         1 MIH       0.171900
      2 CAB          1.3860     0.0000     0.0000 ca         1 MIH      -0.183000
      3 CAC          2.0790     0.0000     1.1920 ca         1 MIH      -0.057000
      4 CAD          1.3830     0.0000     2.4010 cp         1 MIH      -0.113000
      5 CAE         -0.0150     0.0000     2.3970 ca         1 MIH       0.172900
      6 CAF         -0.6980     0.0000     1.1970 ca         1 MIH      -0.212000
      7 FAG         -0.6730     0.0060    -1.1710 f          1 MIH      -0.127900
      8 FAH         -0.6950     0.0000     3.5640 f          1 MIH      -0.122900
      9 CAI          2.1230    -0.0000     3.6830 cp         1 MIH       0.020000
     10 CAJ          2.0450    -1.0980     4.5740 ca         1 MIH      -0.153300
     11 CAK          2.7710    -1.0510     5.7890 ca         1 MIH       0.434600
     12 NAL          3.5140     0.0150     6.0810 nb         1 MIH      -0.666000
     13 CAM          3.5980     1.0420     5.2670 ca         1 MIH       0.465600
     14 CAN          2.9230     1.0740     4.0540 ca         1 MIH      -0.225300
     15 CAO          1.2710    -2.2350     4.2960 ca         1 MIH      -0.105000
     16 CAP          1.2450    -3.2540     5.2030 ca         1 MIH      -0.103300
     17 NAQ          1.9280    -3.1970     6.3360 na         1 MIH       0.149600
     18 CAR          2.6780    -2.1590     6.6650 cp         1 MIH      -0.057600
     19 CAS          3.4190    -2.1560     7.9470 cp         1 MIH       0.003000
     20 CAT          4.7170    -2.6650     8.0080 ca         1 MIH       0.077400
     21 CAU          5.4030    -2.6580     9.2070 ca         1 MIH      -0.125000
     22 CAV          4.8060    -2.1480    10.3460 ca         1 MIH      -0.101000
     23 CAW          3.5190    -1.6420    10.2930 ca         1 MIH      -0.125000
     24 CAX          2.8250    -1.6380     9.0990 ca         1 MIH       0.077400
     25 ClAY         1.2140    -0.9950     9.0330 cl         1 MIH      -0.092900
     26 ClAZ         5.4690    -3.3060     6.5800 cl         1 MIH      -0.092900
     27 OBA          1.8530    -4.2910     7.2300 o          1 MIH      -0.357000
     28 CBB          4.4570     2.2170     5.6580 c3         1 MIH      -0.124000
     29 CBC          5.8460     2.0650     5.0320 c3         1 MIH      -0.073400
     30 CBD          6.6940     3.2910     5.3820 c3         1 MIH       0.159300
     31 NBE          6.0380     4.5030     4.8750 n7         1 MIH      -0.822200
     32 CBF          4.7210     4.6950     5.4960 c3         1 MIH       0.159300
     33 CBG          3.8140     3.5110     5.1500 c3         1 MIH      -0.073400
     34 HAB          1.9260    -0.0000    -0.9390 ha         1 MIH       0.157000
     35 HAC          3.1620    -0.0000     1.1900 ha         1 MIH       0.153000
     36 HAF         -1.7820     0.0000     1.1910 ha         1 MIH       0.167000
     37 HAN          3.0120     1.9360     3.4040 ha         1 MIH       0.158000
     38 HAO          0.7040    -2.3030     3.3750 ha         1 MIH       0.162000
     39 HAP          0.6490    -4.1330     4.9920 h4         1 MIH       0.192000
     40 HAU          6.4110    -3.0520     9.2560 ha         1 MIH       0.148000
     41 HAV          5.3470    -2.1470    11.2840 ha         1 MIH       0.141000
     42 HAW          3.0580    -1.2430    11.1880 ha         1 MIH       0.148000
     43 HBB          4.5500     2.2610     6.7360 hc         1 MIH       0.080700
     44 HBC          5.7510     1.9880     3.9560 hc         1 MIH       0.054700
     45 HBCA         6.3220     1.1740     5.4240 hc         1 MIH       0.054700
     46 HBD          6.7970     3.3620     6.4580 h1         1 MIH       0.035700
     47 HBDA         7.6720     3.1940     4.9260 h1         1 MIH       0.035700
     48 HNBE         6.6150     5.2990     5.0630 hn         1 MIH       0.356800
     49 HBF          4.8370     4.7570     6.5710 h1         1 MIH       0.035700
     50 HBFA         4.2770     5.6100     5.1220 h1         1 MIH       0.035700
     51 HBG          3.6900     3.4540     4.0750 hc         1 MIH       0.054700
     52 HBGA         2.8500     3.6450     5.6240 hc         1 MIH       0.054700
@<TRIPOS>BOND
     1     1     2 ar
     2     1     6 ar
     3     1     7 1
     4     2     3 ar
     5     3     4 ar
     6     4     5 ar
     7     4     9 1
     8     5     6 ar
     9     5     8 1
    10     9    10 ar
    11     9    14 ar
    12    10    11 ar
    13    10    15 ar
    14    11    12 ar
    15    11    18 ar
    16    12    13 ar
    17    13    14 ar
    18    13    28 1
    19    15    16 ar
    20    16    17 2
    21    17    18 1
    22    17    27 1
    23    18    19 1
    24    19    20 ar
    25    19    24 ar
    26    20    21 ar
    27    20    26 1
    28    21    22 ar
    29    22    23 ar
    30    23    24 ar
    31    24    25 1
    32    28    29 1
    33    28    33 1
    34    29    30 1
    35    30    31 1
    36    31    32 1
    37    32    33 1
    38     2    34 1
    39     3    35 1
    40     6    36 1
    41    14    37 1
    42    15    38 1
    43    16    39 1
    44    21    40 1
    45    22    41 1
    46    23    42 1
    47    28    43 1
    48    29    44 1
    49    29    45 1
    50    30    46 1
    51    30    47 1
    52    31    48 1
    53    32    49 1
    54    32    50 1
    55    33    51 1
    56    33    52 1
@<TRIPOS>SUBSTRUCTURE
     1 MIH         1 TEMP              0 ****  ****    0 ROOT
