@<TRIPOS>MOLECULE
MIH
   52    56     1     0     0
SMALL
bcc


@<TRIPOS>ATOM
      1 CAA          0.0000     0.0000     0.0000 ca         1 MIH       0.143900
      2 CAB          1.3860     0.0000     0.0000 ca         1 MIH      -0.144000
      3 CAC          2.0790     0.0000     1.1920 ca         1 MIH      -0.030000
      4 CAD          1.3830     0.0000     2.4010 cp         1 MIH      -0.099000
      5 CAE         -0.0150     0.0000     2.3970 ca         1 MIH       0.145900
      6 CAF         -0.6980     0.0000     1.1970 ca         1 MIH      -0.168000
      7 FAG         -0.6730     0.0060    -1.1710 f          1 MIH      -0.118900
      8 FAH         -0.6950     0.0000     3.5640 f          1 MIH      -0.118900
      9 CAI          2.1230    -0.0000     3.6830 cp         1 MIH       0.041000
     10 CAJ          2.0450    -1.0980     4.5740 ca         1 MIH      -0.194300
     11 CAK          2.7710    -1.0510     5.7890 ca         1 MIH       0.436600
     12 NAL          3.5140     0.0150     6.0810 nb         1 MIH      -0.553000
     13 CAM          3.5980     1.0420     5.2670 ca         1 MIH       0.423600
     14 CAN          2.9230     1.0740     4.0540 ca         1 MIH      -0.214300
     15 CAO          1.2710    -2.2350     4.2960 ca         1 MIH      -0.004000
     16 CAP          1.2450    -3.2540     5.2030 ca         1 MIH      -0.360300
     17 NAQ          1.9280    -3.1970     6.3360 na         1 MIH       0.826600
     18 CAR          2.6780    -2.1590     6.6650 cp         1 MIH      -0.365600
     19 CAS          3.4190    -2.1560     7.9470 cp         1 MIH       0.022000
     20 CAT          4.7170    -2.6650     8.0080 ca         1 MIH       0.009900
     21 CAU          5.4030    -2.6580     9.2070 ca         1 MIH      -0.100500
     22 CAV          4.8060    -2.1480    10.3460 ca         1 MIH      -0.074000
     23 CAW          3.5190    -1.6420    10.2930 ca         1 MIH      -0.100500
     24 CAX          2.8250    -1.6380     9.0990 ca         1 MIH       0.009900
     25 ClAY         1.2140    -0.9950     9.0330 cl         1 MIH      -0.022900
     26 ClAZ         5.4690    -3.3060     6.5800 cl         1 MIH      -0.022900
     27 OBA          1.8530    -4.2910     7.2300 o          1 MIH      -0.523000
     28 CBB          4.4570     2.2170     5.6580 c3         1 MIH      -0.107000
     29 CBC          5.8460     2.0650     5.0320 c3         1 MIH      -0.024900
     30 CBD          6.6940     3.2910     5.3820 c3         1 MIH       0.149300
     31 NBE          6.0380     4.5030     4.8750 n7         1 MIH      -0.583200
     32 CBF          4.7210     4.6950     5.4960 c3         1 MIH       0.149300
     33 CBG          3.8140     3.5110     5.1500 c3         1 MIH      -0.024900
     34 HAB          1.9260    -0.0000    -0.9390 ha         1 MIH       0.128000
     35 HAC          3.1620    -0.0000     1.1900 ha         1 MIH       0.120000
     36 HAF         -1.7820     0.0000     1.1910 ha         1 MIH       0.141000
     37 HAN          3.0120     1.9360     3.4040 ha         1 MIH       0.139000
     38 HAO          0.7040    -2.3030     3.3750 ha         1 MIH       0.126000
     39 HAP          0.6490    -4.1330     4.9920 h4         1 MIH       0.167000
     40 HAU          6.4110    -3.0520     9.2560 ha         1 MIH       0.115500
     41 HAV          5.3470    -2.1470    11.2840 ha         1 MIH       0.106000
     42 HAW          3.0580    -1.2430    11.1880 ha         1 MIH       0.115500
     43 HBB          4.5500     2.2610     6.7360 hc         1 MIH       0.051700
     44 HBC          5.7510     1.9880     3.9560 hc         1 MIH       0.025200
     45 HBCA         6.3220     1.1740     5.4240 hc         1 MIH       0.025200
     46 HBD          6.7970     3.3620     6.4580 h1         1 MIH       0.007950
     47 HBDA         7.6720     3.1940     4.9260 h1         1 MIH       0.007950
     48 HNBE         6.6150     5.2990     5.0630 hn         1 MIH       0.253800
     49 HBF          4.8370     4.7570     6.5710 h1         1 MIH       0.007950
     50 HBFA         4.2770     5.6100     5.1220 h1         1 MIH       0.007950
     51 HBG          3.6900     3.4540     4.0750 hc         1 MIH       0.025200
     52 HBGA         2.8500     3.6450     5.6240 hc         1 MIH       0.025200
@<TRIPOS>BOND
     1     1     2 ar  
     2     1     6 ar  
     3     1     7 1   
     4     2     3 ar  
     5     2    34 1   
     6     3     4 ar  
     7     3    35 1   
     8     4     5 ar  
     9     4     9 1   
    10     5     6 ar  
    11     5     8 1   
    12     6    36 1   
    13     9    10 ar  
    14     9    14 ar  
    15    10    11 ar  
    16    10    15 ar  
    17    11    12 ar  
    18    11    18 ar  
    19    12    13 ar  
    20    13    14 ar  
    21    13    28 1   
    22    14    37 1   
    23    15    16 ar  
    24    15    38 1   
    25    16    17 2   
    26    16    39 1   
    27    17    18 1   
    28    17    27 1   
    29    18    19 1   
    30    19    20 ar  
    31    19    24 ar  
    32    20    21 ar  
    33    20    26 1   
    34    21    22 ar  
    35    21    40 1   
    36    22    23 ar  
    37    22    41 1   
    38    23    24 ar  
    39    23    42 1   
    40    24    25 1   
    41    28    29 1   
    42    28    33 1   
    43    28    43 1   
    44    29    30 1   
    45    29    44 1   
    46    29    45 1   
    47    30    31 1   
    48    30    46 1   
    49    30    47 1   
    50    31    32 1   
    51    31    48 1   
    52    32    33 1   
    53    32    49 1   
    54    32    50 1   
    55    33    51 1   
    56    33    52 1   
@<TRIPOS>SUBSTRUCTURE
     1 MIH         1 TEMP              0 ****  ****    0 ROOT
