@<TRIPOS>MOLECULE
molecule
   45    47     1     0     0
SMALL
bcc


@<TRIPOS>ATOM
      1 C            0.0000     0.0000     0.0000 c          1 MII       0.689500
      2 N            2.0890     1.2200    -0.5670 ns         1 MII      -0.546900
      3 O           -0.8650    -0.1220    -0.8420 o          1 MII      -0.530500
      4 CA           1.5090     0.0000     0.0000 cy         1 MII      -0.021300
      5 CB           1.4720     0.0000     1.5260 cy         1 MII       0.146800
      6 CAA          0.3500     3.9770    -4.0860 c3         1 MII       0.131200
      7 CAB          6.7210     2.2410    -1.2950 c3         1 MII       0.131200
      8 CAC          0.2940     3.5510     3.0840 c3         1 MII      -0.071100
      9 CAD          0.1340     1.3450     4.2990 c3         1 MII      -0.071100
     10 OAE         -2.2740     0.2000     2.6610 o          1 MII      -0.820300
     11 OAH         -2.6890     2.3660     2.5170 o          1 MII      -0.820300
     12 CAI          4.3110     4.7380    -3.4460 ca         1 MII      -0.045000
     13 CAJ          2.9720     4.4580    -3.6480 ca         1 MII      -0.269500
     14 CAK          5.1050     3.8760    -2.7140 ca         1 MII      -0.269500
     15 SAO          2.0710     1.5470     2.3010 ss         1 MII      -0.462200
     16 CAP         -1.8810     1.3050     2.3660 c          1 MII       0.898600
     17 CAQ          2.6260     1.2000    -1.8030 c          1 MII       0.697700
     18 CAS          2.4130     3.3070    -3.1180 ca         1 MII       0.206600
     19 CAT          4.5660     2.7200    -2.1740 ca         1 MII       0.206600
     20 CAU          3.2090     2.4260    -2.3730 ca         1 MII      -0.192600
     21 CAW         -0.4860     1.4890     1.8280 c3         1 MII      -0.041300
     22 NAX          0.0230     0.2000     1.3450 nj         1 MII      -0.379800
     23 CAY          0.4210     2.0310     2.9620 c3         1 MII       0.108100
     24 HN           2.1140     2.0600    -0.0240 hn         1 MII       0.346500
     25 HA           1.9240    -0.9150    -0.4050 h1         1 MII       0.093700
     26 HB           1.7390    -0.9330     2.0070 h2         1 MII       0.109700
     27 HAA         -0.6780     3.6440    -4.1640 h1         1 MII       0.041367
     28 HAAA         0.3800     4.9450    -3.6000 h1         1 MII       0.041367
     29 HAAB         0.7800     4.0570    -5.0770 h1         1 MII       0.041367
     30 HAB          6.7830     3.1990    -0.7950 h1         1 MII       0.041367
     31 HABA         7.2040     2.3060    -2.2630 h1         1 MII       0.041367
     32 HABB         7.2150     1.4870    -0.6950 h1         1 MII       0.041367
     33 HAC          0.3940     4.0020     2.1040 hc         1 MII       0.048867
     34 HACA         1.0730     3.9280     3.7350 hc         1 MII       0.048867
     35 HACB        -0.6750     3.8010     3.4990 hc         1 MII       0.048867
     36 HAD          0.0050     0.2810     4.1380 hc         1 MII       0.048867
     37 HADA        -0.7710     1.7570     4.7300 hc         1 MII       0.048867
     38 HADB         0.9640     1.5090     4.9750 hc         1 MII       0.048867
     39 HAI          4.7400     5.6400    -3.8650 ha         1 MII       0.123000
     40 HAJ          2.3580     5.1400    -4.2240 ha         1 MII       0.133000
     41 HAK          6.1530     4.1060    -2.5620 ha         1 MII       0.133000
     42 HAW         -0.5010     2.1990     1.0100 h1         1 MII       0.058700
     43 OAN          5.3480     1.8750    -1.4550 os         1 MII      -0.303900
     44 OAM          1.0990     3.0340    -3.3170 os         1 MII      -0.303900
     45 OAF          2.6270     0.1680    -2.4480 o          1 MII      -0.605100
@<TRIPOS>BOND
     1     1     3 2
     2     1     4 1
     3     1    22 1
     4     2     4 1
     5     2    17 1
     6     4     5 1
     7     5    15 1
     8     5    22 1
     9     6    44 1
    10     7    43 1
    11     8    23 1
    12     9    23 1
    13    10    16 1
    14    45    17 2
    15    11    16 1
    16    12    13 ar
    17    12    14 ar
    18    13    18 ar
    19    14    19 ar
    20    44    18 1
    21    43    19 1
    22    15    23 1
    23    16    21 1
    24    17    20 1
    25    18    20 ar
    26    19    20 ar
    27    21    22 1
    28    21    23 1
    29     2    24 1
    30     4    25 1
    31     5    26 1
    32     6    27 1
    33     6    28 1
    34     6    29 1
    35     7    30 1
    36     7    31 1
    37     7    32 1
    38     8    33 1
    39     8    34 1
    40     8    35 1
    41     9    36 1
    42     9    37 1
    43     9    38 1
    44    12    39 1
    45    13    40 1
    46    14    41 1
    47    21    42 1
@<TRIPOS>SUBSTRUCTURE
     1 MII         1 TEMP              0 ****  ****    0 ROOT
