@<TRIPOS>MOLECULE
MII
   45    47     1     0     0
SMALL
bcc


@<TRIPOS>ATOM
      1 C            0.0000     0.0000     0.0000 c          1 MII       0.651500
      2 N            2.0890     1.2200    -0.5670 ns         1 MII      -0.165900
      3 O           -0.8650    -0.1220    -0.8420 o          1 MII      -0.558500
      4 CA           1.5090     0.0000     0.0000 cy         1 MII      -0.125300
      5 CB           1.4720     0.0000     1.5260 cy         1 MII       0.100800
      6 CAA          0.3500     3.9770    -4.0860 c3         1 MII       0.245700
      7 CAB          6.7210     2.2410    -1.2950 c3         1 MII       0.245700
      8 CAC          0.2940     3.5510     3.0840 c3         1 MII       0.009400
      9 CAD          0.1340     1.3450     4.2990 c3         1 MII       0.009400
     10 OAE         -2.2740     0.2000     2.6610 o          1 MII      -0.868800
     11 OAH         -2.6890     2.3660     2.5170 o          1 MII      -0.868800
     12 CAI          4.3110     4.7380    -3.4460 ca         1 MII      -0.006000
     13 CAJ          2.9720     4.4580    -3.6480 ca         1 MII      -0.267500
     14 CAK          5.1050     3.8760    -2.7140 ca         1 MII      -0.267500
     15 SAO          2.0710     1.5470     2.3010 ss         1 MII      -0.476200
     16 CAP         -1.8810     1.3050     2.3660 c          1 MII       0.978600
     17 CAQ          2.6260     1.2000    -1.8030 c          1 MII       0.618700
     18 CAS          2.4130     3.3070    -3.1180 ca         1 MII       0.223100
     19 CAT          4.5660     2.7200    -2.1740 ca         1 MII       0.223100
     20 CAU          3.2090     2.4260    -2.3730 ca         1 MII      -0.213600
     21 CAW         -0.4860     1.4890     1.8280 c3         1 MII      -0.105300
     22 NAX          0.0230     0.2000     1.3450 nj         1 MII      -0.135800
     23 CAY          0.4210     2.0310     2.9620 c3         1 MII       0.127100
     24 HN           2.1140     2.0600    -0.0240 hn         1 MII       0.215500
     25 HA           1.9240    -0.9150    -0.4050 h1         1 MII       0.073700
     26 HB           1.7390    -0.9330     2.0070 h2         1 MII       0.082700
     27 HAA         -0.6780     3.6440    -4.1640 h1         1 MII      -0.003300
     28 HAAA         0.3800     4.9450    -3.6000 h1         1 MII      -0.003300
     29 HAAB         0.7800     4.0570    -5.0770 h1         1 MII      -0.003300
     30 HAB          6.7830     3.1990    -0.7950 h1         1 MII      -0.003300
     31 HABA         7.2040     2.3060    -2.2630 h1         1 MII      -0.003300
     32 HABB         7.2150     1.4870    -0.6950 h1         1 MII      -0.003300
     33 HAC          0.3940     4.0020     2.1040 hc         1 MII       0.020867
     34 HACA         1.0730     3.9280     3.7350 hc         1 MII       0.020867
     35 HACB        -0.6750     3.8010     3.4990 hc         1 MII       0.020867
     36 HAD          0.0050     0.2810     4.1380 hc         1 MII       0.020867
     37 HADA        -0.7710     1.7570     4.7300 hc         1 MII       0.020867
     38 HADB         0.9640     1.5090     4.9750 hc         1 MII       0.020867
     39 HAI          4.7400     5.6400    -3.8650 ha         1 MII       0.091000
     40 HAJ          2.3580     5.1400    -4.2240 ha         1 MII       0.120500
     41 HAK          6.1530     4.1060    -2.5620 ha         1 MII       0.120500
     42 HAW         -0.5010     2.1990     1.0100 h1         1 MII       0.043700
     43 OAN          5.3480     1.8750    -1.4550 os         1 MII      -0.287900
     44 OAM          1.0990     3.0340    -3.3170 os         1 MII      -0.287900
     45 OAF          2.6270     0.1680    -2.4480 o          1 MII      -0.649100
@<TRIPOS>BOND
     1     1     3 2   
     2     1     4 1   
     3     1    22 1   
     4     2     4 1   
     5     2    17 1   
     6     2    24 1   
     7     4     5 1   
     8     4    25 1   
     9     5    15 1   
    10     5    22 1   
    11     5    26 1   
    12     6    27 1   
    13     6    28 1   
    14     6    29 1   
    15     6    44 1   
    16     7    30 1   
    17     7    31 1   
    18     7    32 1   
    19     7    43 1   
    20     8    23 1   
    21     8    33 1   
    22     8    34 1   
    23     8    35 1   
    24     9    23 1   
    25     9    36 1   
    26     9    37 1   
    27     9    38 1   
    28    10    16 1   
    29    11    16 1   
    30    12    13 ar  
    31    12    14 ar  
    32    12    39 1   
    33    13    18 ar  
    34    13    40 1   
    35    14    19 ar  
    36    14    41 1   
    37    15    23 1   
    38    16    21 1   
    39    17    20 1   
    40    17    45 2   
    41    18    20 ar  
    42    18    44 1   
    43    19    20 ar  
    44    19    43 1   
    45    21    22 1   
    46    21    23 1   
    47    21    42 1   
@<TRIPOS>SUBSTRUCTURE
     1 MII         1 TEMP              0 ****  ****    0 ROOT
