@<TRIPOS>MOLECULE
molecule
   37    37     1     0     0
SMALL
bcc


@<TRIPOS>ATOM
      1 N            0.0000     0.0000     0.0000 nz         1 MIK      -0.797600
      2 CA           1.4610     0.0000     0.0000 c3         1 MIK      -0.010500
      3 C            1.9360     0.0000     1.4400 c          1 MIK       0.860600
      4 O            1.2290     0.0640     2.4350 o          1 MIK      -0.767300
      5 CB           2.0250     1.1870    -0.7950 c3         1 MIK      -0.078400
      6 CG           1.5980     2.5660    -0.2720 c3         1 MIK      -0.087400
      7 CD           2.1550     3.6870    -1.1560 c3         1 MIK      -0.063400
      8 CE           1.7390     5.0720    -0.6740 c3         1 MIK       0.069800
      9 NZ           0.2800     5.1950    -0.7110 n2         1 MIK      -0.469900
     10 CI1         -0.2520     6.3180    -0.3780 ce         1 MIK       0.479800
     11 CI2         -1.7320     6.4600    -0.4030 ca         1 MIK      -0.139900
     12 NI1          0.4540     7.4330     0.0260 nz         1 MIK      -0.788600
     13 CI3         -2.5100     5.3530    -0.1620 ca         1 MIK      -0.225300
     14 CI4         -3.8830     5.5370    -0.1970 ca         1 MIK       0.428200
     15 NI2         -4.4810     6.7230    -0.4500 nb         1 MIK      -0.593000
     16 CI5         -3.6600     7.7730    -0.6790 ca         1 MIK       0.428200
     17 CI6         -2.2770     7.6930    -0.6660 ca         1 MIK      -0.225300
     18 OXT          3.2900    -0.1010     1.4940 o          1 MIK      -0.767300
     19 H1          -0.3340    -0.8990     0.2860 hn         1 MIK       0.437800
     20 H2          -0.3340     0.6970     0.6360 hn         1 MIK       0.437800
     21 HA           1.8010    -0.9150    -0.4700 hx         1 MIK       0.114700
     22 HBC1         3.1070     1.1320    -0.7710 hc         1 MIK       0.074700
     23 HBC2         1.7000     1.0950    -1.8240 hc         1 MIK       0.074700
     24 HGC1         0.5160     2.6230    -0.2650 hc         1 MIK       0.049200
     25 HGC2         1.9670     2.6930     0.7380 hc         1 MIK       0.049200
     26 HDC1         1.7950     3.5460    -2.1680 hc         1 MIK       0.073200
     27 HDC2         3.2360     3.6270    -1.1570 hc         1 MIK       0.073200
     28 HEC1         2.0860     5.2180     0.3420 h1         1 MIK       0.064700
     29 HEC2         2.1800     5.8240    -1.3170 h1         1 MIK       0.064700
     30 HI1         -0.1250     8.0000     0.6140 hn         1 MIK       0.467133
     31 HI3         -2.0720     4.3840     0.0450 ha         1 MIK       0.148500
     32 HI4         -4.5160     4.6790    -0.0100 h4         1 MIK       0.048100
     33 HI5         -4.1110     8.7360    -0.8840 h4         1 MIK       0.048100
     34 HI6         -1.6560     8.5600    -0.8550 ha         1 MIK       0.148500
     35 HN1          0.7310     7.9620    -0.7770 hn         1 MIK       0.467133
     36 HN3         -0.3340     0.1900    -0.9240 hn         1 MIK       0.437800
     37 HI13         1.2810     7.1470     0.5120 hn         1 MIK       0.467133
@<TRIPOS>BOND
     1     1     2 1
     2     1    19 1
     3     1    20 1
     4     2     3 1
     5     2     5 1
     6     2    21 1
     7     3     4 1
     8     3    18 1
     9     5     6 1
    10     5    22 1
    11     5    23 1
    12     6     7 1
    13     6    24 1
    14     6    25 1
    15     7     8 1
    16     7    26 1
    17     7    27 1
    18     8     9 1
    19     8    28 1
    20     8    29 1
    21     9    10 2
    22    10    11 1
    23    10    12 1
    24    11    13 ar
    25    11    17 ar
    26    12    30 1
    27    13    14 ar
    28    13    31 1
    29    14    15 ar
    30    14    32 1
    31    15    16 ar
    32    16    17 ar
    33    16    33 1
    34    17    34 1
    35    35    12 1
    36    36     1 1
    37    37    12 1
@<TRIPOS>SUBSTRUCTURE
     1 MIK         1 TEMP              0 ****  ****    0 ROOT
