@<TRIPOS>MOLECULE
MIL
   25    26     1     0     0
SMALL
bcc


@<TRIPOS>ATOM
      1 C1          0.0420   -0.0160   -0.0600 cc        1 MIL     -0.176200
      2 C2          1.4330   -0.0280   -0.0270 cd        1 MIL      0.119400
      3 C4          1.4370   -0.0910    2.4250 c         1 MIL      0.703700
      4 C5         -0.0300   -0.0900    2.3720 cd        1 MIL     -0.112900
      5 C6         -0.6830   -0.0560    1.1710 cc        1 MIL      0.028000
      6 C2A         2.2530   -0.0080   -1.2770 c3        1 MIL     -0.089900
      7 C5A        -0.7290   -0.1260    3.6030 ch        1 MIL      0.211500
      8 C1'        -0.7210    0.0320   -1.3030 ca        1 MIL      0.005200
      9 C2'        -1.7450   -0.8980   -1.5380 ca        1 MIL     -0.243800
     10 C3'        -2.4770   -0.8070   -2.7350 ca        1 MIL      0.397700
     11 C5'        -1.2740    1.0200   -3.4380 ca        1 MIL      0.397700
     12 C6'        -0.4830    1.0150   -2.2750 ca        1 MIL     -0.243800
     13 O4          2.1410   -0.1170    3.4480 o         1 MIL     -0.607500
     14 N3          2.0980   -0.0620    1.1770 n         1 MIL     -0.435100
     15 N5A        -1.3040   -0.1560    4.6130 n1        1 MIL     -0.349800
     16 N4'        -2.2550    0.1300   -3.6770 nb        1 MIL     -0.659000
     17 H6         -1.7860   -0.0560    1.1270 ha        1 MIL      0.158000
     18 H2A1        1.6520   -0.3940   -2.1380 hc        1 MIL      0.070700
     19 H2A2        3.1730   -0.6370   -1.1810 hc        1 MIL      0.070700
     20 H2A3        2.5640    1.0440   -1.5030 hc        1 MIL      0.070700
     21 H2'        -1.9710   -1.6840   -0.8060 ha        1 MIL      0.146000
     22 H3'        -3.2890   -1.5250   -2.9540 h4        1 MIL      0.026600
     23 H5'        -1.1150    1.7820   -4.2220 h4        1 MIL      0.026600
     24 H6'         0.2970    1.7730   -2.1300 ha        1 MIL      0.146000
     25 HN3         3.0970   -0.0760    1.1820 hn        1 MIL      0.339500
@<TRIPOS>BOND
     1    1    2 2
     2    1    5 1
     3    1    8 1
     4    2    6 1
     5    2   14 1
     6    3    4 1
     7    3   13 2
     8    3   14 1
     9    4    5 2
    10    4    7 1
    11    5   17 1
    12    6   18 1
    13    6   19 1
    14    6   20 1
    15    7   15 3
    16    8    9 ar
    17    8   12 ar
    18    9   10 ar
    19    9   21 1
    20   10   16 ar
    21   10   22 1
    22   11   12 ar
    23   11   16 ar
    24   11   23 1
    25   12   24 1
    26   14   25 1
@<TRIPOS>SUBSTRUCTURE
     1 MIL         1 TEMP              0 ****  ****    0 ROOT
