@<TRIPOS>MOLECULE
MIM
   99   101     1     0     0
SMALL
bcc


@<TRIPOS>ATOM
      1 CIB         0.0000    0.0000    0.0000 c3        1 MIM     -0.012400
      2 NGB         2.2680    0.0000    1.0600 nc        1 MIM     -0.590000
      3 CBB         1.5070    0.0000    0.0000 cd        1 MIM      0.329800
      4 NAB         2.2940   -0.0060   -1.0970 na        1 MIM      0.257100
      5 CEB         3.5920   -0.0010   -0.6640 cd        1 MIM     -0.316600
      6 CDB         3.5540   -0.0010    0.6830 cc        1 MIM      0.434200
      7 C9B         1.8430   -0.0090   -2.4900 c3        1 MIM     -0.043700
      8 C8B         1.6930   -1.4510   -2.9760 c3        1 MIM     -0.045400
      9 C7B         1.2220   -1.4550   -4.4310 c3        1 MIM     -0.016400
     10 C6B         1.0710   -2.8970   -4.9170 c3        1 MIM      0.019900
     11 C3B         0.6060   -2.8990   -6.3510 ca        1 MIM     -0.034300
     12 C2B         1.5320   -2.8950   -7.3770 ca        1 MIM     -0.075000
     13 C1B         1.1060   -2.8970   -8.6920 ca        1 MIM     -0.068500
     14 C0B        -0.2450   -2.9040   -8.9800 ca        1 MIM     -0.169300
     15 C5B        -1.1710   -2.9100   -7.9540 ca        1 MIM     -0.068500
     16 C4B        -0.7450   -2.9120   -6.6390 ca        1 MIM     -0.075000
     17 CAB        -0.7090   -2.9050  -10.4140 c3        1 MIM      0.007900
     18 CB         -0.8570   -4.3270  -10.8930 c         1 MIM      0.319100
     19 OB         -0.6090   -5.2470  -10.1430 o         1 MIM     -0.404100
     20 NS         -1.2640   -4.5750  -12.1530 ny        1 MIM      0.136200
     21 CAS        -1.4060   -5.9550  -12.6180 c3        1 MIM     -0.081500
     22 CS         -1.1400   -6.0170  -14.1000 c         1 MIM      0.165100
     23 OS         -0.8580   -5.0060  -14.7070 o         1 MIM     -0.534100
     24 CBS        -2.8290   -6.4440  -12.3350 c3        1 MIM      0.204400
     25 OGS        -3.7640   -5.6110  -13.0230 oh        1 MIM     -0.616800
     26 NK         -1.2140   -7.1950  -14.7500 ny        1 MIM      0.237200
     27 CAK        -0.9550   -7.2540  -16.1900 c3        1 MIM     -0.128500
     28 CK         -1.7600   -8.3730  -16.8000 c         1 MIM      0.340100
     29 OK         -2.4800   -9.0530  -16.1010 o         1 MIM     -0.392100
     30 CBK         0.5340   -7.5080  -16.4310 c3        1 MIM     -0.038400
     31 CGK         1.3520   -6.3730  -15.8110 c3        1 MIM     -0.025400
     32 CDK         2.8410   -6.6270  -16.0510 c3        1 MIM     -0.031400
     33 CEK         3.6580   -5.4910  -15.4310 c3        1 MIM     -0.040200
     34 NZK         5.0880   -5.7350  -15.6620 nz        1 MIM      0.096400
     35 NY         -1.6810   -8.6180  -18.1230 ny        1 MIM      0.160200
     36 CAY        -2.4620   -9.7050  -18.7170 c3        1 MIM     -0.040200
     37 CBY        -2.1900   -9.7670  -20.2200 c3        1 MIM     -0.027400
     38 CGY        -3.0080  -10.9020  -20.8410 c3        1 MIM     -0.043700
     39 CKY        -2.7370  -10.9650  -22.3440 c3        1 MIM     -0.022400
     40 CHY        -3.5540  -12.1000  -22.9630 c3        1 MIM     -0.018400
     41 CZY        -3.1520  -13.4280  -22.3180 c3        1 MIM     -0.026400
     42 CEY        -3.4240  -13.3650  -20.8130 c3        1 MIM     -0.018400
     43 CDY        -2.6070  -12.2300  -20.1940 c3        1 MIM     -0.022400
     44 HIB1       -0.3610    0.7970   -0.6390 hc        1 MIM      0.037367
     45 HIB2       -0.3610   -0.9520   -0.3700 hc        1 MIM      0.037367
     46 HIB3       -0.3610    0.1550    1.0100 hc        1 MIM      0.037367
     47 HEB         4.4800   -0.0020   -1.2840 h4        1 MIM      0.169000
     48 HDB         4.4120    0.0310    1.3440 h4        1 MIM      0.031100
     49 H9B1        0.8870    0.4970   -2.5610 h1        1 MIM      0.049700
     50 H9B2        2.5700    0.5060   -3.1060 h1        1 MIM      0.049700
     51 H8B1        0.9650   -1.9660   -2.3600 hc        1 MIM      0.031700
     52 H8B2        2.6480   -1.9580   -2.9040 hc        1 MIM      0.031700
     53 H7B1        0.2670   -0.9490   -4.5030 hc        1 MIM      0.022200
     54 H7B2        1.9500   -0.9410   -5.0470 hc        1 MIM      0.022200
     55 H6B1        2.0270   -3.4030   -4.8470 hc        1 MIM      0.033700
     56 H6B2        0.3440   -3.4110   -4.3010 hc        1 MIM      0.033700
     57 H2B         2.5910   -2.9200   -7.1510 ha        1 MIM      0.127500
     58 H1B         1.8320   -2.8930   -9.4960 ha        1 MIM      0.097500
     59 H5B        -2.2300   -2.8810   -8.1800 ha        1 MIM      0.097500
     60 H4B        -1.4700   -2.9160   -5.8350 ha        1 MIM      0.127500
     61 HAB1       -1.6640   -2.3990  -10.4840 hc        1 MIM      0.060200
     62 HAB2        0.0190   -2.3910  -11.0290 hc        1 MIM      0.060200
     63 HNS        -0.6090   -4.1280  -12.7630 hn        1 MIM      0.288800
     64 HAS        -0.6970   -6.5870  -12.0970 hx        1 MIM      0.112700
     65 HBS1       -3.0210   -6.3990  -11.2700 h1        1 MIM      0.040200
     66 HBS2       -2.9350   -7.4650  -12.6790 h1        1 MIM      0.040200
     67 HOGS       -4.6390   -5.8190  -12.7370 ho        1 MIM      0.474000
     68 HNK        -2.1390   -7.5490  -14.6050 hn        1 MIM      0.248800
     69 HAK        -1.2400   -6.3140  -16.6470 hx        1 MIM      0.139700
     70 HBK1        0.7260   -7.5510  -17.4960 hc        1 MIM      0.056700
     71 HBK2        0.8180   -8.4490  -15.9750 hc        1 MIM      0.056700
     72 HGK1        1.0670   -5.4320  -16.2670 hc        1 MIM      0.037200
     73 HGK2        1.1600   -6.3300  -14.7450 hc        1 MIM      0.037200
     74 HDK1        3.1250   -7.5670  -15.5950 hc        1 MIM      0.048700
     75 HDK2        3.0320   -6.6700  -17.1160 hc        1 MIM      0.048700
     76 HEK1        3.4670   -5.4470  -14.3660 hx        1 MIM      0.084200
     77 HEK2        3.3740   -4.5500  -15.8880 hx        1 MIM      0.084200
     78 HNZ1        5.3560   -6.5910  -15.2190 hn        1 MIM      0.237467
     79 HNZ2        5.6210   -4.9790  -15.2790 hn        1 MIM      0.237467
     80 HNY        -0.7190   -8.8050  -18.3270 hn        1 MIM      0.267300
     81 HAY1       -3.5170   -9.5250  -18.5480 hx        1 MIM      0.107200
     82 HAY2       -2.1780  -10.6450  -18.2590 hx        1 MIM      0.107200
     83 HBY1       -1.1360   -9.9480  -20.3900 hc        1 MIM      0.033700
     84 HBY2       -2.4730   -8.8270  -20.6780 hc        1 MIM      0.033700
     85 HGY        -4.0630  -10.7260  -20.6730 hc        1 MIM      0.049700
     86 HKY1       -3.0230  -10.0250  -22.8010 hc        1 MIM      0.011950
     87 HKY2       -1.6830  -11.1480  -22.5120 hc        1 MIM      0.011950
     88 HHY1       -3.3600  -12.1440  -24.0280 hc        1 MIM      0.032200
     89 HHY2       -4.6090  -11.9200  -22.7900 hc        1 MIM      0.032200
     90 HZY1       -3.7330  -14.2310  -22.7560 hc        1 MIM      0.034200
     91 HZY2       -2.0970  -13.6050  -22.4870 hc        1 MIM      0.034200
     92 HEY1       -3.1370  -14.3050  -20.3570 hc        1 MIM      0.032200
     93 HEY2       -4.4780  -13.1830  -20.6450 hc        1 MIM      0.032200
     94 HDY1       -2.8010  -12.1850  -19.1300 hc        1 MIM      0.011950
     95 HDY2       -1.5520  -12.4100  -20.3670 hc        1 MIM      0.011950
     96 HS2        -2.1570   -4.1360  -12.2610 hn        1 MIM      0.288800
     97 HK2        -0.5580   -7.8110  -14.3120 hn        1 MIM      0.248800
     98 HZK3        5.2610   -5.7990  -16.6460 hn        1 MIM      0.237467
     99 HY2        -1.9520   -7.7750  -18.5910 hn        1 MIM      0.267300
@<TRIPOS>BOND
     1    1    3 1   
     2    1   44 1   
     3    1   45 1   
     4    1   46 1   
     5    2    3 2   
     6    2    6 1   
     7    3    4 1   
     8    4    5 1   
     9    4    7 1   
    10    5    6 2   
    11    5   47 1   
    12    6   48 1   
    13    7    8 1   
    14    7   49 1   
    15    7   50 1   
    16    8    9 1   
    17    8   51 1   
    18    8   52 1   
    19    9   10 1   
    20    9   53 1   
    21    9   54 1   
    22   10   11 1   
    23   10   55 1   
    24   10   56 1   
    25   11   12 ar  
    26   11   16 ar  
    27   12   13 ar  
    28   12   57 1   
    29   13   14 ar  
    30   13   58 1   
    31   14   15 ar  
    32   14   17 1   
    33   15   16 ar  
    34   15   59 1   
    35   16   60 1   
    36   17   18 1   
    37   17   61 1   
    38   17   62 1   
    39   18   19 2   
    40   18   20 1   
    41   20   21 1   
    42   20   63 1   
    43   20   96 1   
    44   21   22 1   
    45   21   24 1   
    46   21   64 1   
    47   22   23 2   
    48   22   26 1   
    49   24   25 1   
    50   24   65 1   
    51   24   66 1   
    52   25   67 1   
    53   26   27 1   
    54   26   68 1   
    55   26   97 1   
    56   27   28 1   
    57   27   30 1   
    58   27   69 1   
    59   28   29 2   
    60   28   35 1   
    61   30   31 1   
    62   30   70 1   
    63   30   71 1   
    64   31   32 1   
    65   31   72 1   
    66   31   73 1   
    67   32   33 1   
    68   32   74 1   
    69   32   75 1   
    70   33   34 1   
    71   33   76 1   
    72   33   77 1   
    73   34   78 1   
    74   34   79 1   
    75   34   98 1   
    76   35   36 1   
    77   35   80 1   
    78   35   99 1   
    79   36   37 1   
    80   36   81 1   
    81   36   82 1   
    82   37   38 1   
    83   37   83 1   
    84   37   84 1   
    85   38   39 1   
    86   38   43 1   
    87   38   85 1   
    88   39   40 1   
    89   39   86 1   
    90   39   87 1   
    91   40   41 1   
    92   40   88 1   
    93   40   89 1   
    94   41   42 1   
    95   41   90 1   
    96   41   91 1   
    97   42   43 1   
    98   42   92 1   
    99   42   93 1   
   100   43   94 1   
   101   43   95 1   
@<TRIPOS>SUBSTRUCTURE
     1 MIM         1 TEMP              0 ****  ****    0 ROOT
