@<TRIPOS>MOLECULE
molecule
   96    98     1     0     0
SMALL
bcc


@<TRIPOS>ATOM
      1 CIB          0.0000     0.0000     0.0000 c3         1 MIM      -0.105400
      2 NGB          2.2680     0.0000     1.0600 nc         1 MIM      -0.693000
      3 CBB          1.5070     0.0000     0.0000 cd         1 MIM       0.399800
      4 NAB          2.2940    -0.0060    -1.0970 na         1 MIM      -0.185900
      5 CEB          3.5920    -0.0010    -0.6640 cd         1 MIM      -0.284600
      6 CDB          3.5540    -0.0010     0.6830 cc         1 MIM       0.316200
      7 C9B          1.8430    -0.0090    -2.4900 c3         1 MIM       0.043300
      8 C8B          1.6930    -1.4510    -2.9760 c3         1 MIM      -0.104400
      9 C7B          1.2220    -1.4550    -4.4310 c3         1 MIM      -0.078400
     10 C6B          1.0710    -2.8970    -4.9170 c3         1 MIM      -0.036100
     11 C3B          0.6060    -2.8990    -6.3510 ca         1 MIM      -0.074300
     12 C2B          1.5320    -2.8950    -7.3770 ca         1 MIM      -0.120500
     13 C1B          1.1060    -2.8970    -8.6920 ca         1 MIM      -0.108500
     14 C0B         -0.2450    -2.9040    -8.9800 ca         1 MIM      -0.076300
     15 C5B         -1.1710    -2.9100    -7.9540 ca         1 MIM      -0.108500
     16 C4B         -0.7450    -2.9120    -6.6390 ca         1 MIM      -0.120500
     17 CAB         -0.7090    -2.9050   -10.4140 c3         1 MIM      -0.103100
     18 CB          -0.8570    -4.3270   -10.8930 c          1 MIM       0.655100
     19 OB          -0.6090    -5.2470   -10.1430 o          1 MIM      -0.605100
     20 NS          -1.2640    -4.5750   -12.1530 ns         1 MIM      -0.570900
     21 CAS         -1.4060    -5.9550   -12.6180 c3         1 MIM       0.051700
     22 CS          -1.1400    -6.0170   -14.1000 c          1 MIM       0.663100
     23 OS          -0.8580    -5.0060   -14.7070 o          1 MIM      -0.630100
     24 CBS         -2.8290    -6.4440   -12.3350 c3         1 MIM       0.126400
     25 OGS         -3.7640    -5.6110   -13.0230 oh         1 MIM      -0.609800
     26 NK          -1.2140    -7.1950   -14.7500 ns         1 MIM      -0.563900
     27 CAK         -0.9550    -7.2540   -16.1900 c3         1 MIM       0.042700
     28 CK          -1.7600    -8.3730   -16.8000 c          1 MIM       0.648100
     29 OK          -2.4800    -9.0530   -16.1010 o          1 MIM      -0.592100
     30 CBK          0.5340    -7.5080   -16.4310 c3         1 MIM      -0.093400
     31 CGK          1.3520    -6.3730   -15.8110 c3         1 MIM      -0.072400
     32 CDK          2.8410    -6.6270   -16.0510 c3         1 MIM      -0.113400
     33 CEK          3.6580    -5.4910   -15.4310 c3         1 MIM       0.091800
     34 NZK          5.0880    -5.7350   -15.6620 nz         1 MIM      -0.811600
     35 NY          -1.6810    -8.6180   -18.1230 ns         1 MIM      -0.579900
     36 CAY         -2.4620    -9.7050   -18.7170 c3         1 MIM       0.107000
     37 CBY         -2.1900    -9.7670   -20.2200 c3         1 MIM      -0.097400
     38 CGY         -3.0080   -10.9020   -20.8410 c3         1 MIM      -0.066700
     39 CKY         -2.7370   -10.9650   -22.3440 c3         1 MIM      -0.077400
     40 CHY         -3.5540   -12.1000   -22.9630 c3         1 MIM      -0.078900
     41 CZY         -3.1520   -13.4280   -22.3180 c3         1 MIM      -0.080400
     42 CEY         -3.4240   -13.3650   -20.8130 c3         1 MIM      -0.078900
     43 CDY         -2.6070   -12.2300   -20.1940 c3         1 MIM      -0.077400
     44 HIB1        -0.3610     0.1260     1.0140 hc         1 MIM       0.053033
     45 HIB2        -0.3610    -0.9410    -0.3970 hc         1 MIM       0.053033
     46 HIB3        -0.3610     0.8150    -0.6160 hc         1 MIM       0.053033
     47 HEB          4.4800    -0.0020    -1.2840 h4         1 MIM       0.169000
     48 HDB          4.4120     0.0010     1.3440 h4         1 MIM       0.041100
     49 H9B1         2.5700     0.5060    -3.1060 h1         1 MIM       0.061200
     50 H9B2         0.8870     0.4970    -2.5610 h1         1 MIM       0.061200
     51 H8B1         0.9650    -1.9660    -2.3600 hc         1 MIM       0.056700
     52 H8B2         2.6480    -1.9580    -2.9040 hc         1 MIM       0.056700
     53 H7B1         1.9500    -0.9410    -5.0470 hc         1 MIM       0.046200
     54 H7B2         0.2670    -0.9490    -4.5030 hc         1 MIM       0.046200
     55 H6B1         0.3440    -3.4110    -4.3010 hc         1 MIM       0.053700
     56 H6B2         2.0270    -3.4030    -4.8470 hc         1 MIM       0.053700
     57 H2B          2.5920    -2.8890    -7.1510 ha         1 MIM       0.133000
     58 H1B          1.8320    -2.8930    -9.4960 ha         1 MIM       0.125000
     59 H5B         -2.2300    -2.9170    -8.1810 ha         1 MIM       0.125000
     60 H4B         -1.4700    -2.9160    -5.8350 ha         1 MIM       0.133000
     61 HAB1        -1.6640    -2.3990   -10.4840 hc         1 MIM       0.068700
     62 HAB2         0.0190    -2.3910   -11.0290 hc         1 MIM       0.068700
     63 HNS         -1.4790    -3.8150   -12.7670 hn         1 MIM       0.342500
     64 HAS         -0.6970    -6.5870   -12.0970 h1         1 MIM       0.097700
     65 HBS1        -3.0210    -6.3990   -11.2700 h1         1 MIM       0.044200
     66 HBS2        -2.9350    -7.4650   -12.6790 h1         1 MIM       0.044200
     67 HOGS        -4.6420    -5.8860   -12.8140 ho         1 MIM       0.418000
     68 HNK         -1.4040    -8.0360   -14.2410 hn         1 MIM       0.342500
     69 HAK         -1.2400    -6.3140   -16.6470 h1         1 MIM       0.105700
     70 HBK1         0.7260    -7.5510   -17.4960 hc         1 MIM       0.054700
     71 HBK2         0.8180    -8.4490   -15.9750 hc         1 MIM       0.054700
     72 HGK1         1.0670    -5.4320   -16.2670 hc         1 MIM       0.072700
     73 HGK2         1.1600    -6.3300   -14.7450 hc         1 MIM       0.072700
     74 HDK1         3.0320    -6.6700   -17.1160 hc         1 MIM       0.062200
     75 HDK2         3.1250    -7.5670   -15.5950 hc         1 MIM       0.062200
     76 HEK1         3.4670    -5.4470   -14.3660 hx         1 MIM       0.115700
     77 HEK2         3.3740    -4.5500   -15.8880 hx         1 MIM       0.115700
     78 HNZ1         5.3510    -6.6030   -15.2400 hn         1 MIM       0.456133
     79 HNZ2         5.2650    -5.7750   -16.6460 hn         1 MIM       0.456133
     80 HNY         -1.1040    -8.0420   -18.7040 hn         1 MIM       0.310500
     81 HAY1        -2.1780   -10.6450   -18.2590 h1         1 MIM       0.062700
     82 HAY2        -3.5170    -9.5250   -18.5480 h1         1 MIM       0.062700
     83 HBY1        -2.4730    -8.8270   -20.6780 hc         1 MIM       0.043700
     84 HBY2        -1.1360    -9.9480   -20.3900 hc         1 MIM       0.043700
     85 HGY         -4.0630   -10.7260   -20.6730 hc         1 MIM       0.059700
     86 HKY1        -3.0230   -10.0250   -22.8010 hc         1 MIM       0.040950
     87 HKY2        -1.6830   -11.1480   -22.5120 hc         1 MIM       0.040950
     88 HHY1        -4.6090   -11.9200   -22.7900 hc         1 MIM       0.045700
     89 HHY2        -3.3600   -12.1440   -24.0280 hc         1 MIM       0.045700
     90 HZY1        -2.0970   -13.6050   -22.4870 hc         1 MIM       0.044200
     91 HZY2        -3.7330   -14.2310   -22.7560 hc         1 MIM       0.044200
     92 HEY1        -3.1370   -14.3050   -20.3570 hc         1 MIM       0.045700
     93 HEY2        -4.4780   -13.1830   -20.6450 hc         1 MIM       0.045700
     94 HDY1        -1.5520   -12.4100   -20.3670 hc         1 MIM       0.040950
     95 HDY2        -2.8010   -12.1850   -19.1300 hc         1 MIM       0.040950
     96 HZK3         5.6220    -4.9870   -15.2650 hn         1 MIM       0.456133
@<TRIPOS>BOND
     1     1     3 1
     2     1    44 1
     3     1    45 1
     4     1    46 1
     5     2     3 2
     6     2     6 1
     7     3     4 1
     8     4     5 1
     9     4     7 1
    10     5     6 2
    11     5    47 1
    12     6    48 1
    13     7     8 1
    14     7    49 1
    15     7    50 1
    16     8     9 1
    17     8    51 1
    18     8    52 1
    19     9    10 1
    20     9    53 1
    21     9    54 1
    22    10    11 1
    23    10    55 1
    24    10    56 1
    25    11    12 ar
    26    11    16 ar
    27    12    13 ar
    28    12    57 1
    29    13    14 ar
    30    13    58 1
    31    14    15 ar
    32    14    17 1
    33    15    16 ar
    34    15    59 1
    35    16    60 1
    36    17    18 1
    37    17    61 1
    38    17    62 1
    39    18    19 2
    40    18    20 1
    41    20    21 1
    42    20    63 1
    43    21    22 1
    44    21    24 1
    45    21    64 1
    46    22    23 2
    47    22    26 1
    48    24    25 1
    49    24    65 1
    50    24    66 1
    51    25    67 1
    52    26    27 1
    53    26    68 1
    54    27    28 1
    55    27    30 1
    56    27    69 1
    57    28    29 2
    58    28    35 1
    59    30    31 1
    60    30    70 1
    61    30    71 1
    62    31    32 1
    63    31    72 1
    64    31    73 1
    65    32    33 1
    66    32    74 1
    67    32    75 1
    68    33    34 1
    69    33    76 1
    70    33    77 1
    71    34    78 1
    72    34    79 1
    73    35    36 1
    74    35    80 1
    75    36    37 1
    76    36    81 1
    77    36    82 1
    78    37    38 1
    79    37    83 1
    80    37    84 1
    81    38    39 1
    82    38    43 1
    83    38    85 1
    84    39    40 1
    85    39    86 1
    86    39    87 1
    87    40    41 1
    88    40    88 1
    89    40    89 1
    90    41    42 1
    91    41    90 1
    92    41    91 1
    93    42    43 1
    94    42    92 1
    95    42    93 1
    96    43    94 1
    97    43    95 1
    98    96    34 1
@<TRIPOS>SUBSTRUCTURE
     1 MIM         1 TEMP              0 ****  ****    0 ROOT
