@<TRIPOS>MOLECULE
MIO
   13    13     1     0     0
SMALL
bcc


@<TRIPOS>ATOM
      1 CAA         0.0180    0.0120   -0.0350 c3        1 MIO     -0.133400
      2 NAB         4.8380   -0.1980    1.3400 nh        1 MIO     -0.902500
      3 CAC         2.3000    0.0060    1.1930 cc        1 MIO     -0.436600
      4 NAD         2.3000   -0.1760   -1.0920 nd        1 MIO     -0.382300
      5 OAE         3.5600   -0.1970   -0.6910 os        1 MIO     -0.146100
      6 CAF         1.4910   -0.0510   -0.0200 cc        1 MIO      0.351600
      7 CAG         3.6110   -0.0950    0.7350 cd        1 MIO      0.473600
      8 HAA        -0.3210    0.9300    0.5060 hc        1 MIO      0.057367
      9 HAAA       -0.3900    0.0380   -1.0760 hc        1 MIO      0.057367
     10 HAAB       -0.3970   -0.8860    0.4880 hc        1 MIO      0.057367
     11 HNAB        4.9170    0.3250    2.1840 hn        1 MIO      0.415300
     12 HNAA        5.6180   -0.1150    0.7240 hn        1 MIO      0.415300
     13 HAC         1.9360    0.0910    2.2080 ha        1 MIO      0.174000
@<TRIPOS>BOND
     1    1    6 1   
     2    1    8 1   
     3    1    9 1   
     4    1   10 1   
     5    2    7 1   
     6    2   11 1   
     7    2   12 1   
     8    3    6 1   
     9    3    7 2   
    10    3   13 1   
    11    4    5 1   
    12    4    6 2   
    13    5    7 1   
@<TRIPOS>SUBSTRUCTURE
     1 MIO         1 TEMP              0 ****  ****    0 ROOT
