@<TRIPOS>MOLECULE
molecule
   15    14     1     0     0
SMALL
bcc


@<TRIPOS>ATOM
      1 P            0.0000     0.0000     0.0000 p5         1 MIP       1.150900
      2 OA1          1.6160     0.0000     0.0000 o          1 MIP      -0.907500
      3 O3          -0.6420     0.0000     1.3560 o          1 MIP      -0.907500
      4 O2B         -0.3860     1.2560    -0.9410 os         1 MIP      -0.547200
      5 C2B         -1.7560     1.4510    -1.2770 c3         1 MIP       0.199100
      6 C1B         -2.5610     1.6500    -0.0020 c3         1 MIP      -0.105600
      7 C3B         -1.8760     2.6420    -2.2160 c3         1 MIP      -0.105600
      8 H2B         -2.1200     0.5670    -1.7860 h1         1 MIP       0.031700
      9 H1B1        -3.4720     2.1890    -0.2310 hc         1 MIP       0.016200
     10 H1B2        -1.9750     2.2170     0.7100 hc         1 MIP       0.016200
     11 H1B3        -2.8090     0.6840     0.4220 hc         1 MIP       0.016200
     12 H3B1        -1.2820     2.4640    -3.1040 hc         1 MIP       0.016200
     13 H3B2        -2.9140     2.7770    -2.4970 hc         1 MIP       0.016200
     14 H3B3        -1.5190     3.5340    -1.7150 hc         1 MIP       0.016200
     15 OA2         -0.3720    -1.2680    -0.9320 o          1 MIP      -0.907500
@<TRIPOS>BOND
     1     1     2 1
     2     1     3 1
     3     1     4 1
     4     4     5 1
     5     5     6 1
     6     5     7 1
     7     5     8 1
     8     6     9 1
     9     6    10 1
    10     6    11 1
    11     7    12 1
    12     7    13 1
    13     7    14 1
    14     1    15 1
@<TRIPOS>SUBSTRUCTURE
     1 MIP         1 TEMP              0 ****  ****    0 ROOT
