@<TRIPOS>MOLECULE
MIP
   15    13     1     0     0
SMALL
bcc


@<TRIPOS>ATOM
      1 P           0.7290   -0.5810   -0.7690 p5        1 MIP      1.328900
      2 OA1         2.0860   -0.3970   -0.1420 o         1 MIP     -0.951167
      3 O3         -0.4560   -0.3300    0.1400 o         1 MIP     -0.951167
      4 O2B         0.5870    0.6760   -1.9120 oh        1 MIP     -0.818400
      5 C2B        -2.5480    1.9170   -0.1170 c2        1 MIP     -0.106200
      6 C1B        -3.3970    2.6090    0.6440 c2        1 MIP     -0.351000
      7 C3B        -2.2770    2.2260   -1.5340 c3        1 MIP     -0.086900
      8 H2B         0.4950    0.2780   -2.7670 ho        1 MIP      0.368000
      9 H1B1       -1.9500    1.0380    0.2630 ha        1 MIP      0.259000
     10 H1B2       -3.5740    2.3580    1.6950 ha        1 MIP      0.066000
     11 H1B3       -3.9630    3.4760    0.2800 ha        1 MIP      0.066000
     12 H3B1       -2.6050    3.2560   -1.8220 hc        1 MIP      0.043033
     13 H3B2       -1.1750    2.1000   -1.7330 hc        1 MIP      0.043033
     14 H3B3       -2.8150    1.4900   -2.1830 hc        1 MIP      0.043033
     15 OA2         0.5880   -1.7370   -1.7320 o         1 MIP     -0.951167
@<TRIPOS>BOND
     1    1    2 1   
     2    1    3 1   
     3    1    4 1   
     4    1   15 1   
     5    4    8 1   
     6    5    6 2   
     7    5    7 1   
     8    5    9 1   
     9    6   10 1   
    10    6   11 1   
    11    7   12 1   
    12    7   13 1   
    13    7   14 1   
@<TRIPOS>SUBSTRUCTURE
     1 MIP         1 TEMP              0 ****  ****    0 ROOT
