@<TRIPOS>MOLECULE
molecule
   60    62     1     0     0
SMALL
bcc


@<TRIPOS>ATOM
      1 OAC          0.0000     0.0000     0.0000 oh         1 MIX      -0.592300
      2 CAK          1.4300     0.0000     0.0000 c3         1 MIX       0.142400
      3 CAM          1.9390     0.0000     1.4420 c3         1 MIX       0.149800
      4 NAS          1.5510    -1.2550     2.0990 n7         1 MIX      -0.782700
      5 CAO          2.0680    -1.1900     3.4730 c3         1 MIX       0.130800
      6 CAQ          1.6970    -2.4730     4.2190 c3         1 MIX       0.229300
      7 NAU          2.2130    -2.4090     5.5880 nu         1 MIX      -0.818100
      8 CAY          1.9990    -3.4660     6.4610 ca         1 MIX       0.210600
      9 CAI          1.3170    -4.6060     6.0260 ca         1 MIX      -0.145500
     10 CAJ          1.1000    -5.6580     6.8840 ca         1 MIX      -0.145500
     11 CBE          2.4670    -3.3970     7.7750 ca         1 MIX      -0.194100
     12 CBA          3.1820    -2.2000     8.2560 c          1 MIX       0.610300
     13 OAA          3.1680    -1.1720     7.6050 o          1 MIX      -0.535600
     14 CBC          3.9180    -2.2670     9.5310 ca         1 MIX      -0.126100
     15 CAW          4.8320    -1.2700     9.8780 ca         1 MIX       0.142600
     16 OAE          5.0500    -0.2260     9.0400 oh         1 MIX      -0.468600
     17 CAG          5.5200    -1.3520    11.0870 ca         1 MIX      -0.169000
     18 CAH          5.3050    -2.4080    11.9440 ca         1 MIX      -0.169000
     19 CAX          4.3960    -3.4120    11.6160 ca         1 MIX       0.142600
     20 OAF          4.1910    -4.4480    12.4660 oh         1 MIX      -0.468600
     21 CBD          3.6970    -3.3480    10.4090 ca         1 MIX      -0.126100
     22 CBB          2.7310    -4.4000    10.0430 c          1 MIX       0.610300
     23 OAB          2.3430    -5.1960    10.8780 o          1 MIX      -0.535600
     24 CBF          2.2400    -4.4750     8.6570 ca         1 MIX      -0.194100
     25 CAZ          1.5570    -5.6060     8.2030 ca         1 MIX       0.210600
     26 NAV          1.3330    -6.6730     9.0610 nu         1 MIX      -0.818100
     27 CAR          0.4930    -7.7950     8.6310 c3         1 MIX       0.229300
     28 CAP          0.4080    -8.8300     9.7550 c3         1 MIX       0.130800
     29 NAT         -0.4330    -9.9530     9.3230 n7         1 MIX      -0.782700
     30 CAN         -0.4720   -10.9050    10.4410 c3         1 MIX       0.149800
     31 CAL         -1.3370   -12.1080    10.0580 c3         1 MIX       0.142400
     32 OAD         -0.7190   -12.8150     8.9810 oh         1 MIX      -0.592300
     33 HAC         -0.3140     0.1540    -0.8750 ho         1 MIX       0.396000
     34 HAK1         1.7910    -0.8840    -0.5110 h1         1 MIX       0.019450
     35 HAK2         1.7910     0.8840    -0.5110 h1         1 MIX       0.019450
     36 HAM1         3.0180     0.0900     1.4440 h1         1 MIX       0.043950
     37 HAM2         1.5060     0.8370     1.9780 h1         1 MIX       0.043950
     38 HAS          1.9720    -2.0270     1.6210 hn         1 MIX       0.348300
     39 HAO1         3.1460    -1.0850     3.4480 h1         1 MIX       0.042450
     40 HAO2         1.6340    -0.3380     3.9820 h1         1 MIX       0.042450
     41 HAQ1         2.1310    -3.3250     3.7090 h1         1 MIX       0.042950
     42 HAQ2         0.6190    -2.5780     4.2440 h1         1 MIX       0.042950
     43 HAU          2.7490    -1.6170     5.8840 hn         1 MIX       0.475800
     44 HAI          0.9570    -4.6610     5.0060 ha         1 MIX       0.141000
     45 HAJ          0.5710    -6.5360     6.5330 ha         1 MIX       0.141000
     46 HAE          5.3420     0.5200     9.5370 ho         1 MIX       0.420000
     47 HAG          6.2300    -0.5790    11.3550 ha         1 MIX       0.139000
     48 HAH          5.8470    -2.4600    12.8810 ha         1 MIX       0.139000
     49 HAF          4.4120    -4.1830    13.3440 ho         1 MIX       0.420000
     50 HAV          1.7400    -6.6750     9.9750 hn         1 MIX       0.475800
     51 HAR1         0.9260    -8.2530     7.7500 h1         1 MIX       0.042950
     52 HAR2        -0.5010    -7.4330     8.3970 h1         1 MIX       0.042950
     53 HAP1        -0.0250    -8.3720    10.6350 h1         1 MIX       0.042450
     54 HAP2         1.4020    -9.1920     9.9880 h1         1 MIX       0.042450
     55 HAT         -1.3590    -9.6230     9.1330 hn         1 MIX       0.348300
     56 HAN1         0.5330   -11.2400    10.6650 h1         1 MIX       0.043950
     57 HAN2        -0.8940   -10.4200    11.3130 h1         1 MIX       0.043950
     58 HAL1        -1.4370   -12.7670    10.9120 h1         1 MIX       0.019450
     59 HAL2        -2.3170   -11.7650     9.7500 h1         1 MIX       0.019450
     60 HAD         -1.1640   -13.6350     8.8460 ho         1 MIX       0.396000
@<TRIPOS>BOND
     1     1     2 1
     2     1    33 1
     3     2     3 1
     4     2    34 1
     5     2    35 1
     6     3     4 1
     7     3    36 1
     8     3    37 1
     9     4     5 1
    10     4    38 1
    11     5     6 1
    12     5    39 1
    13     5    40 1
    14     6     7 1
    15     6    41 1
    16     6    42 1
    17     7     8 1
    18     7    43 1
    19     8     9 ar
    20     8    11 ar
    21     9    10 ar
    22     9    44 1
    23    10    25 ar
    24    10    45 1
    25    11    12 1
    26    11    24 ar
    27    12    13 2
    28    12    14 1
    29    14    15 ar
    30    14    21 ar
    31    15    16 1
    32    15    17 ar
    33    16    46 1
    34    17    18 ar
    35    17    47 1
    36    18    19 ar
    37    18    48 1
    38    19    20 1
    39    19    21 ar
    40    20    49 1
    41    21    22 1
    42    22    23 2
    43    22    24 1
    44    24    25 ar
    45    25    26 1
    46    26    27 1
    47    26    50 1
    48    27    28 1
    49    27    51 1
    50    27    52 1
    51    28    29 1
    52    28    53 1
    53    28    54 1
    54    29    30 1
    55    29    55 1
    56    30    31 1
    57    30    56 1
    58    30    57 1
    59    31    32 1
    60    31    58 1
    61    31    59 1
    62    32    60 1
@<TRIPOS>SUBSTRUCTURE
     1 MIX         1 TEMP              0 ****  ****    0 ROOT
