@<TRIPOS>MOLECULE
molecule
   61    64     1     0     0
SMALL
bcc


@<TRIPOS>ATOM
      1 O8           0.0000     0.0000     0.0000 o          1 MIY      -0.425100
      2 C21          1.2300     0.0000     0.0000 c          1 MIY       0.542300
      3 N2           1.8900     0.0000     1.2040 nz         1 MIY      -0.673400
      4 C2           1.9780     0.0790    -1.3250 ce         1 MIY      -0.468400
      5 C1           2.7680     1.3160    -1.5340 c          1 MIY       0.576300
      6 O1           2.8200     2.1750    -0.6540 o          1 MIY      -0.566100
      7 C3           1.9740    -0.8560    -2.3580 c2         1 MIY       0.326900
      8 O2           1.0680    -1.8550    -2.3200 oh         1 MIY      -0.486100
      9 C4           3.0020    -0.8520    -3.5500 c3         1 MIY       0.231700
     10 N1           2.4400    -1.1540    -4.9760 n3         1 MIY      -0.729600
     11 C20          3.2210    -0.5700    -6.0980 c3         1 MIY       0.156100
     12 C19          0.9710    -1.0080    -5.2410 c3         1 MIY       0.156100
     13 C5           4.1060     0.2570    -3.3980 c3         1 MIY      -0.083700
     14 C18          3.4560     1.5430    -2.8820 c3         1 MIY       0.102000
     15 O7           2.3890     2.0110    -3.7370 oh         1 MIY      -0.573800
     16 C17          4.5410     2.6080    -2.9390 c2         1 MIY       0.092900
     17 O6           4.0860     3.7780    -3.3990 oh         1 MIY      -0.482100
     18 C16          5.8560     2.4350    -2.6260 ce         1 MIY      -0.181400
     19 C7           6.4630     1.0650    -2.4670 c3         1 MIY      -0.018500
     20 C6           5.3840    -0.0580    -2.5420 c3         1 MIY      -0.054400
     21 C15          6.7210     3.6220    -2.3960 c          1 MIY       0.564900
     22 O5           6.4100     4.7920    -2.6350 o          1 MIY      -0.484100
     23 C14          8.0360     3.4640    -1.7500 ca         1 MIY      -0.189600
     24 C9           8.2890     2.2700    -1.1160 ca         1 MIY      -0.013300
     25 C8           7.2400     1.1350    -1.1240 c3         1 MIY      -0.009100
     26 C13          8.9340     4.5420    -1.7860 ca         1 MIY       0.188100
     27 O4           8.6140     5.7180    -2.4550 oh         1 MIY      -0.462100
     28 C12         10.1800     4.4240    -1.1650 ca         1 MIY      -0.201000
     29 C11         10.4590     3.2340    -0.5330 ca         1 MIY      -0.116000
     30 C10          9.5300     2.1840    -0.5100 ca         1 MIY       0.021600
     31 N7           9.8840     1.0740     0.2110 nh         1 MIY      -0.565000
     32 CN7          9.4530     1.4520     1.5740 c3         1 MIY       0.127100
     33 C71         11.3490     0.9850     0.1430 c3         1 MIY       0.127100
     34 HN21         2.0090     0.9420     1.5190 hn         1 MIY       0.481467
     35 HN22         1.3540    -0.5110     1.8780 hn         1 MIY       0.481467
     36 HO2          0.2050    -1.4930    -2.2040 ho         1 MIY       0.471000
     37 H4           3.5710    -1.7510    -3.3490 h1         1 MIY       0.086700
     38 H201         3.0760     0.5030    -6.1180 h1         1 MIY       0.049200
     39 H202         2.8820    -0.9980    -7.0340 h1         1 MIY       0.049200
     40 H203         4.2720    -0.7910    -5.9590 h1         1 MIY       0.049200
     41 H191         0.7990    -0.9750    -6.3100 h1         1 MIY       0.049200
     42 H192         0.4420    -1.8520    -4.8160 h1         1 MIY       0.049200
     43 H193         0.6120    -0.0920    -4.7880 h1         1 MIY       0.049200
     44 H5           4.4600     0.4710    -4.3990 hc         1 MIY       0.110700
     45 HO7          1.9600     2.7460    -3.3320 ho         1 MIY       0.428000
     46 HO6          3.8450     4.3300    -2.6730 ho         1 MIY       0.438000
     47 H7           7.1750     0.9090    -3.2680 hc         1 MIY       0.090700
     48 H61          5.0540    -0.2580    -1.5300 hc         1 MIY       0.047200
     49 H62          5.8560    -0.9310    -2.9750 hc         1 MIY       0.047200
     50 H81          7.7570     0.1940    -0.9820 hc         1 MIY       0.061200
     51 H82          6.5280     1.3250    -0.3300 hc         1 MIY       0.061200
     52 HO4          9.3950     6.2320    -2.5780 ho         1 MIY       0.422000
     53 H12         10.8980     5.2350    -1.1830 ha         1 MIY       0.151000
     54 H11         11.4160     3.1070    -0.0410 ha         1 MIY       0.153000
     55 HN71         8.3750     1.3740     1.6460 h1         1 MIY       0.043200
     56 HN72         9.7550     2.4720     1.7780 h1         1 MIY       0.043200
     57 HN73         9.9120     0.7880     2.2950 h1         1 MIY       0.043200
     58 H711        11.6570    -0.0360     0.3330 h1         1 MIY       0.043200
     59 H712        11.7850     1.6380     0.8890 h1         1 MIY       0.043200
     60 H713        11.6840     1.2860    -0.8420 h1         1 MIY       0.043200
     61 H23          2.7870    -0.4290     1.0930 hn         1 MIY       0.481467
@<TRIPOS>BOND
     1     1     2 2
     2     2     3 1
     3     2     4 1
     4     3    34 1
     5     3    35 1
     6     4     5 1
     7     4     7 2
     8     5     6 2
     9     5    14 1
    10     7     8 1
    11     7     9 1
    12     8    36 1
    13     9    10 1
    14     9    13 1
    15     9    37 1
    16    10    11 1
    17    10    12 1
    18    11    38 1
    19    11    39 1
    20    11    40 1
    21    12    41 1
    22    12    42 1
    23    12    43 1
    24    13    14 1
    25    13    20 1
    26    13    44 1
    27    14    15 1
    28    14    16 1
    29    15    45 1
    30    16    17 1
    31    16    18 2
    32    17    46 1
    33    18    19 1
    34    18    21 1
    35    19    20 1
    36    19    25 1
    37    19    47 1
    38    20    48 1
    39    20    49 1
    40    21    22 2
    41    21    23 1
    42    23    24 ar
    43    23    26 ar
    44    24    25 1
    45    24    30 ar
    46    25    50 1
    47    25    51 1
    48    26    27 1
    49    26    28 ar
    50    27    52 1
    51    28    29 ar
    52    28    53 1
    53    29    30 ar
    54    29    54 1
    55    30    31 1
    56    31    32 1
    57    31    33 1
    58    32    55 1
    59    32    56 1
    60    32    57 1
    61    33    58 1
    62    33    59 1
    63    33    60 1
    64    61     3 1
@<TRIPOS>SUBSTRUCTURE
     1 MIY         1 TEMP              0 ****  ****    0 ROOT
