@<TRIPOS>MOLECULE
MIZ
   34    35     1     0     0
SMALL
bcc


@<TRIPOS>ATOM
      1 CAA        -0.0160   -0.1270    0.2200 c3        1 MIZ     -0.090800
      2 CAE         1.4720   -0.0670    0.1070 ca        1 MIZ      0.046400
      3 CAD         2.2400   -0.1100    1.2800 ca        1 MIZ     -0.173500
      4 CAC         3.6400   -0.0640    1.2230 ca        1 MIZ      0.063700
      5 CAB         4.4530   -0.1230    2.4540 c3        1 MIZ     -0.092800
      6 CAF         4.2430    0.0300   -0.0380 ca        1 MIZ     -0.173500
      7 CAG         3.4650    0.0710   -1.2050 ca        1 MIZ      0.046400
      8 CAN         4.1560    0.1600   -2.5260 c3        1 MIZ     -0.090800
      9 NAH         2.0870    0.0140   -1.1270 na        1 MIZ      0.009900
     10 CAI         1.2820    0.0530   -2.3550 c3        1 MIZ     -0.014700
     11 CAJ         0.9110    1.4700   -2.8070 c3        1 MIZ     -0.094700
     12 CAK         0.2140    1.4160   -4.1070 cc        1 MIZ      0.246600
     13 CAO        -0.9520    2.1290   -4.4610 cd        1 MIZ     -0.214600
     14 NAP        -1.2100    1.8120   -5.7900 na        1 MIZ     -0.305900
     15 CAM        -0.2080    0.9250   -6.2030 cd        1 MIZ      0.416400
     16 NAL         0.6640    0.6700   -5.2080 nc        1 MIZ     -0.682000
     17 HAA        -0.5050    0.6910   -0.3690 hc        1 MIZ      0.091033
     18 HAAA       -0.3940   -1.1150   -0.1520 hc        1 MIZ      0.091033
     19 HAAB       -0.3200   -0.0160    1.2910 hc        1 MIZ      0.091033
     20 HAD         1.7250   -0.1800    2.2540 ha        1 MIZ      0.188500
     21 HAB         5.4220    0.4220    2.3250 hc        1 MIZ      0.084033
     22 HABA        4.6850   -1.1940    2.6980 hc        1 MIZ      0.084033
     23 HABB        3.9050    0.3200    3.3230 hc        1 MIZ      0.084033
     24 HAF         5.3420    0.0740   -0.1270 ha        1 MIZ      0.188500
     25 HAN         3.7230    0.9710   -3.1670 hc        1 MIZ      0.091033
     26 HANA        4.0680   -0.8130   -3.0760 hc        1 MIZ      0.091033
     27 HANB        5.2430    0.3790   -2.3720 hc        1 MIZ      0.091033
     28 HAI         0.3410   -0.5450   -2.1850 h1        1 MIZ      0.107200
     29 HAIA        1.8660   -0.4690   -3.1700 h1        1 MIZ      0.107200
     30 HAJ         0.2460    1.9610   -2.0480 hc        1 MIZ      0.062700
     31 HAJA        1.8370    2.1010   -2.9090 hc        1 MIZ      0.062700
     32 HAO        -1.5770    2.8100   -3.8850 h4        1 MIZ      0.188000
     33 HNAP       -1.9550    2.1590   -6.3380 hn        1 MIZ      0.318700
     34 HAM        -0.1630    0.5070   -7.2160 h5        1 MIZ      0.079100
@<TRIPOS>BOND
     1    1    2 1   
     2    1   17 1   
     3    1   18 1   
     4    1   19 1   
     5    2    3 ar  
     6    2    9 2   
     7    3    4 ar  
     8    3   20 1   
     9    4    5 1   
    10    4    6 ar  
    11    5   21 1   
    12    5   22 1   
    13    5   23 1   
    14    6    7 ar  
    15    6   24 1   
    16    7    8 1   
    17    7    9 1   
    18    8   25 1   
    19    8   26 1   
    20    8   27 1   
    21    9   10 1   
    22   10   11 1   
    23   10   28 1   
    24   10   29 1   
    25   11   12 1   
    26   11   30 1   
    27   11   31 1   
    28   12   13 2   
    29   12   16 1   
    30   13   14 1   
    31   13   32 1   
    32   14   15 1   
    33   14   33 1   
    34   15   16 2   
    35   15   34 1   
@<TRIPOS>SUBSTRUCTURE
     1 MIZ         1 TEMP              0 ****  ****    0 ROOT
