@<TRIPOS>MOLECULE
molecule
   34    35     1     0     0
SMALL
bcc


@<TRIPOS>ATOM
      1 CAA          0.0000     0.0000     0.0000 c3         1 MIZ      -0.070800
      2 CAE          1.5060     0.0000     0.0000 ca         1 MIZ       0.013400
      3 CAD          2.1890     0.0000     1.2020 ca         1 MIZ      -0.154000
      4 CAC          3.5750    -0.0010     1.1910 ca         1 MIZ       0.035700
      5 CAB          4.3570    -0.0020     2.4790 c3         1 MIZ      -0.069800
      6 CAF          4.2270    -0.0020    -0.0330 ca         1 MIZ      -0.154000
      7 CAG          3.4770    -0.0010    -1.1940 ca         1 MIZ       0.013400
      8 CAN          4.1730    -0.0020    -2.5310 c3         1 MIZ      -0.070800
      9 NAH          2.1580    -0.0060    -1.1460 na         1 MIZ       0.057900
     10 CAI          1.3990    -0.0110    -2.3980 c3         1 MIZ      -0.019700
     11 CAJ          1.0350     1.4250    -2.7810 c3         1 MIZ      -0.095700
     12 CAK          0.2540     1.4200    -4.0690 cc         1 MIZ       0.275600
     13 CAO         -0.9600     1.9700    -4.2610 cd         1 MIZ      -0.238600
     14 NAP         -1.2990     1.7380    -5.5670 na         1 MIZ      -0.283900
     15 CAM         -0.2790     1.0530    -6.1280 cd         1 MIZ       0.427400
     16 NAL          0.6480     0.8710    -5.2280 nc         1 MIZ      -0.711000
     17 HAA         -0.3610    -0.7970    -0.6390 hc         1 MIZ       0.085367
     18 HAAA        -0.3610    -0.1550     1.0090 hc         1 MIZ       0.085367
     19 HAAB        -0.3610     0.9520    -0.3700 hc         1 MIZ       0.085367
     20 HAD          1.6550    -0.1700     2.1280 ha         1 MIZ       0.189000
     21 HAB          5.2410     0.6150     2.3660 hc         1 MIZ       0.078367
     22 HABA         3.7400     0.3930     3.2770 hc         1 MIZ       0.078367
     23 HABB         4.6530    -1.0160     2.7210 hc         1 MIZ       0.078367
     24 HAF          5.3090    -0.0030    -0.0790 ha         1 MIZ       0.189000
     25 HAN          3.8810     0.8780    -3.0900 hc         1 MIZ       0.085367
     26 HANA         3.8920    -0.8910    -3.0830 hc         1 MIZ       0.085367
     27 HANB         5.2450     0.0050    -2.3790 hc         1 MIZ       0.085367
     28 HAI          0.4930    -0.5910    -2.2690 h1         1 MIZ       0.107200
     29 HAIA         2.0010    -0.4530    -3.1840 h1         1 MIZ       0.107200
     30 HAJ          0.4340     1.8660    -1.9960 hc         1 MIZ       0.063200
     31 HAJA         1.9410     2.0040    -2.9110 hc         1 MIZ       0.063200
     32 HAO         -1.5540     2.4960    -3.5240 h4         1 MIZ       0.181000
     33 HNAP        -2.1440     2.0210    -6.0210 hn         1 MIZ       0.317700
     34 HAM         -0.2360     0.7160    -7.1560 h5         1 MIZ       0.082100
@<TRIPOS>BOND
     1     1     2 1
     2     2     3 ar
     3     2     9 2
     4     3     4 ar
     5     4     5 1
     6     4     6 ar
     7     6     7 ar
     8     7     8 1
     9     7     9 1
    10     9    10 1
    11    10    11 1
    12    11    12 1
    13    12    13 2
    14    12    16 1
    15    13    14 1
    16    14    15 1
    17    15    16 2
    18     1    17 1
    19     1    18 1
    20     1    19 1
    21     3    20 1
    22     5    21 1
    23     5    22 1
    24     5    23 1
    25     6    24 1
    26     8    25 1
    27     8    26 1
    28     8    27 1
    29    10    28 1
    30    10    29 1
    31    11    30 1
    32    11    31 1
    33    13    32 1
    34    14    33 1
    35    15    34 1
@<TRIPOS>SUBSTRUCTURE
     1 MIZ         1 TEMP              0 ****  ****    0 ROOT
