@<TRIPOS>MOLECULE
molecule
   27    28     1     0     0
SMALL
bcc


@<TRIPOS>ATOM
      1 CAA          0.0000     0.0000     0.0000 c3         1 MJ5      -0.046800
      2 OAB          2.6010     0.0060     4.1280 oh         1 MJ5      -0.505100
      3 CAC          8.2740     0.9840     1.0770 ca         1 MJ5      -0.162000
      4 CAD          7.2930     1.9280     1.3120 ca         1 MJ5      -0.092000
      5 CAE          8.0660    -0.3360     1.4300 ca         1 MJ5      -0.092000
      6 CAF          6.1000     1.5560     1.9000 ca         1 MJ5      -0.257500
      7 CAG          6.8740    -0.7150     2.0180 ca         1 MJ5      -0.257500
      8 CAH          2.5030     0.0000     0.0000 ca         1 MJ5      -0.108000
      9 CAI          3.7190     0.0000     0.6580 ca         1 MJ5      -0.168000
     10 CAJ          1.3540     0.0030     2.1040 ca         1 MJ5      -0.141000
     11 OAK          4.9520     0.0030     2.6920 os         1 MJ5      -0.175200
     12 CAL          1.3230     0.0000     0.7220 ca         1 MJ5      -0.087300
     13 CAM          2.5700     0.0030     2.7700 ca         1 MJ5       0.103100
     14 CAN          5.8870     0.2300     2.2550 ca         1 MJ5       0.242100
     15 CAO          3.7570     0.0020     2.0440 ca         1 MJ5       0.090100
     16 HAA          0.1570     0.2510    -1.0420 hc         1 MJ5       0.046033
     17 HAAA        -0.4500    -0.9830     0.0700 hc         1 MJ5       0.046033
     18 HAAB        -0.6580     0.7320     0.4530 hc         1 MJ5       0.046033
     19 HOAB         2.3880    -0.8540     4.4500 ho         1 MJ5       0.420000
     20 HAD          7.4590     2.9620     1.0350 ha         1 MJ5       0.125500
     21 HAE          8.8370    -1.0740     1.2440 ha         1 MJ5       0.125500
     22 HAF          5.3310     2.2970     2.0830 ha         1 MJ5       0.140500
     23 HAG          6.7110    -1.7500     2.2940 ha         1 MJ5       0.140500
     24 HAH          2.4740    -0.0010    -1.0830 ha         1 MJ5       0.139000
     25 HAI          4.6420    -0.0000     0.0910 ha         1 MJ5       0.155000
     26 HAJ          0.4290     0.0170     2.6670 ha         1 MJ5       0.147000
     27 HAC          9.2090     1.2790     0.6160 ha         1 MJ5       0.127000
@<TRIPOS>BOND
     1     1    12 1
     2     2    13 1
     3     3     4 ar
     4     3     5 ar
     5     4     6 ar
     6     5     7 ar
     7     6    14 ar
     8     7    14 ar
     9     8     9 ar
    10     8    12 ar
    11     9    15 ar
    12    10    12 ar
    13    10    13 ar
    14    11    14 1
    15    11    15 1
    16    13    15 ar
    17     1    16 1
    18     1    17 1
    19     1    18 1
    20     2    19 1
    21     3    27 1
    22     4    20 1
    23     5    21 1
    24     6    22 1
    25     7    23 1
    26     8    24 1
    27     9    25 1
    28    10    26 1
@<TRIPOS>SUBSTRUCTURE
     1 MJ5         1 TEMP              0 ****  ****    0 ROOT
