@<TRIPOS>MOLECULE
MJ5
   27    28     1     0     0
SMALL
bcc


@<TRIPOS>ATOM
      1 CAA        -0.2160    0.4840    0.2150 c3        1 MJ5     -0.056800
      2 OAB         2.7950   -0.2720    3.9620 oh        1 MJ5     -0.492100
      3 CAC         8.3580    1.2780    1.5230 ca        1 MJ5     -0.155000
      4 CAD         7.1290    1.8760    1.2540 ca        1 MJ5     -0.103000
      5 CAE         8.4090   -0.0330    2.0020 ca        1 MJ5     -0.103000
      6 CAF         5.9410    1.1760    1.4620 ca        1 MJ5     -0.165500
      7 CAG         7.2370   -0.7540    2.2150 ca        1 MJ5     -0.165500
      8 CAH         2.1760   -0.1200   -0.1530 ca        1 MJ5     -0.158000
      9 CAI         3.4470   -0.4340    0.3160 ca        1 MJ5     -0.103000
     10 CAJ         1.3500    0.0900    2.1170 ca        1 MJ5     -0.154000
     11 OAK         4.8870   -0.9140    2.2350 os        1 MJ5     -0.260200
     12 CAL         1.1270    0.1430    0.7400 ca        1 MJ5     -0.046300
     13 CAM         2.6300   -0.2210    2.6010 ca        1 MJ5      0.135100
     14 CAN         6.0050   -0.1360    1.9440 ca        1 MJ5      0.107100
     15 CAO         3.6760   -0.4830    1.6940 ca        1 MJ5     -0.004900
     16 HAA        -0.4950   -0.2000   -0.6240 hc        1 MJ5      0.048033
     17 HAAA       -0.2180    1.5340   -0.1730 hc        1 MJ5      0.048033
     18 HAAB       -0.9960    0.4030    1.0120 hc        1 MJ5      0.048033
     19 HOAB        3.7210   -0.5010    4.1410 ho        1 MJ5      0.437000
     20 HAD         7.0890    2.9090    0.8770 ha        1 MJ5      0.135000
     21 HAE         9.3810   -0.5040    2.2130 ha        1 MJ5      0.135000
     22 HAF         4.9680    1.6430    1.2500 ha        1 MJ5      0.149500
     23 HAG         7.2600   -1.7860    2.5900 ha        1 MJ5      0.149500
     24 HAH         1.9890   -0.0810   -1.2360 ha        1 MJ5      0.138000
     25 HAI         4.2740   -0.6410   -0.3800 ha        1 MJ5      0.149000
     26 HAJ         0.5400    0.2880    2.8340 ha        1 MJ5      0.154000
     27 HAC         9.2900    1.8370    1.3580 ha        1 MJ5      0.134000
@<TRIPOS>BOND
     1    1   12 1   
     2    1   16 1   
     3    1   17 1   
     4    1   18 1   
     5    2   13 1   
     6    2   19 1   
     7    3    4 ar  
     8    3    5 ar  
     9    3   27 1   
    10    4    6 ar  
    11    4   20 1   
    12    5    7 ar  
    13    5   21 1   
    14    6   14 ar  
    15    6   22 1   
    16    7   14 ar  
    17    7   23 1   
    18    8    9 ar  
    19    8   12 ar  
    20    8   24 1   
    21    9   15 ar  
    22    9   25 1   
    23   10   12 ar  
    24   10   13 ar  
    25   10   26 1   
    26   11   14 1   
    27   11   15 1   
    28   13   15 ar  
@<TRIPOS>SUBSTRUCTURE
     1 MJ5         1 TEMP              0 ****  ****    0 ROOT
