@<TRIPOS>MOLECULE
molecule
   53    54     1     0     0
SMALL
bcc


@<TRIPOS>ATOM
      1 O16          0.0000     0.0000     0.0000 o          1 MJA      -0.860800
      2 C15          1.2090     0.0000     0.0000 c          1 MJA       0.898600
      3 O15          1.8800     0.0000     1.1620 o          1 MJA      -0.860800
      4 C14          1.9620    -0.0060    -1.3060 c3         1 MJA      -0.204400
      5 C13          0.9680    -0.0130    -2.4680 c3         1 MJA       0.167100
      6 O13          0.2260    -1.2340    -2.4530 oh         1 MJA      -0.611800
      7 C12          1.7280     0.1070    -3.7900 c3         1 MJA      -0.104400
      8 C11          0.7300     0.2250    -4.9440 c3         1 MJA       0.150100
      9 O11         -0.0230    -0.9840    -5.0480 oh         1 MJA      -0.593800
     10 C10          1.4880     0.4690    -6.2510 c3         1 MJA      -0.108400
     11 C9           0.4870     0.7130    -7.3830 c3         1 MJA      -0.075400
     12 C1           1.2460     0.9560    -8.6890 c3         1 MJA      -0.042700
     13 C8A          0.3090     0.7230    -9.8770 c3         1 MJA      -0.021500
     14 C2           2.4190    -0.0190    -8.7910 c3         1 MJA      -0.041500
     15 C2M          1.9190    -1.4340    -8.4970 c3         1 MJA      -0.098100
     16 C3           3.0430     0.0070   -10.1530 c2         1 MJA      -0.140200
     17 C4           2.4410     0.4680   -11.2350 ce         1 MJA      -0.153000
     18 C4A          1.0690     1.0170   -11.1360 ce         1 MJA      -0.064200
     19 C5           0.6000     1.7630   -12.1200 c2         1 MJA      -0.181200
     20 C6          -0.7450     2.4330   -12.0140 c3         1 MJA      -0.033500
     21 C6M         -0.7550     3.7110   -12.8560 c3         1 MJA      -0.084100
     22 C7          -0.9780     2.7830   -10.5370 c3         1 MJA      -0.105400
     23 C8          -0.9870     1.4860    -9.7310 c3         1 MJA       0.149100
     24 O8          -1.1920     1.7970    -8.3520 oh         1 MJA      -0.582800
     25 H14          2.5850     0.8780    -1.3680 hc         1 MJA       0.037700
     26 H14A         2.5850    -0.8910    -1.3590 hc         1 MJA       0.037700
     27 H13          0.2870     0.8240    -2.3660 h1         1 MJA       0.028700
     28 HO13        -0.6080    -1.0900    -2.0380 ho         1 MJA       0.413000
     29 H12          2.3430    -0.7730    -3.9340 hc         1 MJA       0.048700
     30 H12A         2.3580     0.9880    -3.7660 hc         1 MJA       0.048700
     31 H11          0.0580     1.0540    -4.7560 h1         1 MJA       0.023700
     32 HO11        -0.9270    -0.8090    -4.8450 ho         1 MJA       0.395000
     33 H10          2.0930    -0.3980    -6.4850 hc         1 MJA       0.047700
     34 H10A         2.1270     1.3370    -6.1410 hc         1 MJA       0.047700
     35 H9          -0.1520    -0.1550    -7.4920 hc         1 MJA       0.068700
     36 H9A         -0.1180     1.5800    -7.1490 hc         1 MJA       0.068700
     37 H1           1.6170     1.9740    -8.7150 hc         1 MJA       0.053700
     38 H8A          0.0600    -0.3320    -9.8890 hc         1 MJA       0.065700
     39 H2           3.1680     0.2550    -8.0570 hc         1 MJA       0.064700
     40 H2M          1.5180    -1.8710    -9.4040 hc         1 MJA       0.044367
     41 H2MA         1.1430    -1.3940    -7.7430 hc         1 MJA       0.044367
     42 H2MB         2.7410    -2.0410    -8.1370 hc         1 MJA       0.044367
     43 H3           4.0510    -0.3770   -10.2580 ha         1 MJA       0.114000
     44 H4           2.9780     0.5170   -12.1750 ha         1 MJA       0.122000
     45 H5           1.1930     1.8950   -13.0170 ha         1 MJA       0.122000
     46 H6          -1.5180     1.7560   -12.3560 hc         1 MJA       0.053700
     47 H6M         -1.4080     4.4420   -12.3960 hc         1 MJA       0.033700
     48 H6MA         0.2500     4.1120   -12.9160 hc         1 MJA       0.033700
     49 H6MB        -1.1130     3.4830   -13.8530 hc         1 MJA       0.033700
     50 H7          -1.9320     3.2850   -10.4290 hc         1 MJA       0.050700
     51 H7A         -0.1800     3.4250   -10.1850 hc         1 MJA       0.050700
     52 H8          -1.8010     0.8620   -10.0810 h1         1 MJA       0.026700
     53 HO8         -2.0820     2.0790    -8.2230 ho         1 MJA       0.379000
@<TRIPOS>BOND
     1     1     2 1
     2     2     3 1
     3     2     4 1
     4     4     5 1
     5     4    25 1
     6     4    26 1
     7     5     6 1
     8     5     7 1
     9     5    27 1
    10     6    28 1
    11     7     8 1
    12     7    29 1
    13     7    30 1
    14     8     9 1
    15     8    10 1
    16     8    31 1
    17     9    32 1
    18    10    11 1
    19    10    33 1
    20    10    34 1
    21    11    12 1
    22    11    35 1
    23    11    36 1
    24    12    13 1
    25    12    14 1
    26    12    37 1
    27    13    18 1
    28    13    23 1
    29    13    38 1
    30    14    15 1
    31    14    16 1
    32    14    39 1
    33    15    40 1
    34    15    41 1
    35    15    42 1
    36    16    17 2
    37    16    43 1
    38    17    18 1
    39    17    44 1
    40    18    19 2
    41    19    20 1
    42    19    45 1
    43    20    21 1
    44    20    22 1
    45    20    46 1
    46    21    47 1
    47    21    48 1
    48    21    49 1
    49    22    23 1
    50    22    50 1
    51    22    51 1
    52    23    24 1
    53    23    52 1
    54    24    53 1
@<TRIPOS>SUBSTRUCTURE
     1 MJA         1 TEMP              0 ****  ****    0 ROOT
