@<TRIPOS>MOLECULE
MJA
   53    54     1     0     0
SMALL
bcc


@<TRIPOS>ATOM
      1 O16         0.1010   -0.1160    0.1370 o         1 MJA     -0.846800
      2 C15         0.8180    0.8960   -0.1380 c         1 MJA      0.909600
      3 O15         0.8830    1.9270    0.5840 o         1 MJA     -0.846800
      4 C14         1.6680    0.8540   -1.4190 c3        1 MJA     -0.234400
      5 C13         0.9300    0.1750   -2.5620 c3        1 MJA      0.170100
      6 O13         0.7600   -1.2170   -2.3250 oh        1 MJA     -0.672800
      7 C12         1.7030    0.3140   -3.8740 c3        1 MJA     -0.122400
      8 C11         0.8760   -0.1110   -5.0820 c3        1 MJA      0.153100
      9 O11         0.8120   -1.5280   -5.2050 oh        1 MJA     -0.634800
     10 C10         1.4980    0.4030   -6.3810 c3        1 MJA     -0.081400
     11 C9          0.5190    0.2850   -7.5320 c3        1 MJA     -0.075400
     12 C1          1.1670    0.4970   -8.8860 c3        1 MJA     -0.033700
     13 C8A         0.1850    0.4340  -10.0680 c3        1 MJA     -0.017500
     14 C2          2.3090   -0.5050   -9.1520 c3        1 MJA     -0.037500
     15 C2M         1.9520   -1.9290   -8.7640 c3        1 MJA     -0.094100
     16 C3          2.7760   -0.4820  -10.5700 c2        1 MJA     -0.140200
     17 C4          2.1470    0.1790  -11.5520 ce        1 MJA     -0.155000
     18 C4A         0.9430    0.9480  -11.2660 ce        1 MJA     -0.069200
     19 C5          0.6310    2.0720  -11.9310 c2        1 MJA     -0.177200
     20 C6         -0.4990    2.9680  -11.5600 c3        1 MJA     -0.024500
     21 C6M        -0.0970    4.4240  -11.6840 c3        1 MJA     -0.086100
     22 C7         -0.9910    2.6700  -10.1490 c3        1 MJA     -0.111400
     23 C8         -1.1610    1.1630   -9.9930 c3        1 MJA      0.152100
     24 O8         -1.8410    0.8090   -8.8020 oh        1 MJA     -0.583800
     25 H14         1.9420    1.8970   -1.7100 hc        1 MJA      0.036200
     26 H14A        2.6060    0.2900   -1.1910 hc        1 MJA      0.036200
     27 H13        -0.0910    0.6420   -2.6730 h1        1 MJA      0.028700
     28 HO13        0.4220   -1.3040   -1.4150 ho        1 MJA      0.464000
     29 H12         2.6290   -0.3130   -3.8240 hc        1 MJA      0.048200
     30 H12A        2.0060    1.3860   -3.9900 hc        1 MJA      0.048200
     31 H11        -0.1750    0.2850   -4.9810 h1        1 MJA      0.033700
     32 HO11        0.6250   -1.8770   -4.3220 ho        1 MJA      0.436000
     33 H10         2.4280   -0.1890   -6.5800 hc        1 MJA      0.038700
     34 H10A        1.7970    1.4750   -6.2470 hc        1 MJA      0.038700
     35 H9         -0.2760    1.0650   -7.3840 hc        1 MJA      0.062200
     36 H9A         0.0100   -0.7130   -7.5000 hc        1 MJA      0.062200
     37 H1          1.6260    1.5280   -8.8810 hc        1 MJA      0.040700
     38 H8A        -0.0650   -0.6550  -10.2310 hc        1 MJA      0.069700
     39 H2          3.1840   -0.1820   -8.5140 hc        1 MJA      0.057700
     40 H2M         2.7840   -2.6210   -9.0420 hc        1 MJA      0.044033
     41 H2MA        1.7820   -2.0030   -7.6600 hc        1 MJA      0.044033
     42 H2MB        1.0250   -2.2640   -9.2870 hc        1 MJA      0.044033
     43 H3          3.6920   -1.0590  -10.7680 ha        1 MJA      0.118000
     44 H4          2.5230    0.1920  -12.5850 ha        1 MJA      0.121000
     45 H5          1.2300    2.4010  -12.7940 ha        1 MJA      0.120000
     46 H6         -1.3470    2.7710  -12.2800 hc        1 MJA      0.046700
     47 H6M        -0.9530    5.0830  -11.4000 hc        1 MJA      0.034367
     48 H6MA        0.7640    4.6520  -11.0120 hc        1 MJA      0.034367
     49 H6MB        0.2010    4.6570  -12.7340 hc        1 MJA      0.034367
     50 H7         -0.2570    3.0460   -9.3900 hc        1 MJA      0.050700
     51 H7A        -1.9660    3.1910   -9.9680 hc        1 MJA      0.050700
     52 H8         -1.7830    0.7920  -10.8660 h1        1 MJA      0.021700
     53 HO8        -2.6380    1.3520   -8.7660 ho        1 MJA      0.395000
@<TRIPOS>BOND
     1    1    2 1   
     2    2    3 1   
     3    2    4 1   
     4    4    5 1   
     5    4   25 1   
     6    4   26 1   
     7    5    6 1   
     8    5    7 1   
     9    5   27 1   
    10    6   28 1   
    11    7    8 1   
    12    7   29 1   
    13    7   30 1   
    14    8    9 1   
    15    8   10 1   
    16    8   31 1   
    17    9   32 1   
    18   10   11 1   
    19   10   33 1   
    20   10   34 1   
    21   11   12 1   
    22   11   35 1   
    23   11   36 1   
    24   12   13 1   
    25   12   14 1   
    26   12   37 1   
    27   13   18 1   
    28   13   23 1   
    29   13   38 1   
    30   14   15 1   
    31   14   16 1   
    32   14   39 1   
    33   15   40 1   
    34   15   41 1   
    35   15   42 1   
    36   16   17 2   
    37   16   43 1   
    38   17   18 1   
    39   17   44 1   
    40   18   19 2   
    41   19   20 1   
    42   19   45 1   
    43   20   21 1   
    44   20   22 1   
    45   20   46 1   
    46   21   47 1   
    47   21   48 1   
    48   21   49 1   
    49   22   23 1   
    50   22   50 1   
    51   22   51 1   
    52   23   24 1   
    53   23   52 1   
    54   24   53 1   
@<TRIPOS>SUBSTRUCTURE
     1 MJA         1 TEMP              0 ****  ****    0 ROOT
