@<TRIPOS>MOLECULE
molecule
   37    38     1     0     0
SMALL
bcc


@<TRIPOS>ATOM
      1 O18          0.0000     0.0000     0.0000 o          1 MJF      -0.511100
      2 C8           1.2130     0.0000     0.0000 c          1 MJF       0.589700
      3 C2           1.9490     0.0000     1.2730 ca         1 MJF      -0.120600
      4 C3           1.2540     0.0010     2.4870 ca         1 MJF      -0.072500
      5 C4           1.9500     0.0000     3.6760 ca         1 MJF      -0.148500
      6 C5           3.3360    -0.0000     3.6710 ca         1 MJF       0.028400
      7 Cl7          4.2040    -0.0010     5.1740 cl         1 MJF      -0.163400
      8 C6           4.0310    -0.0020     2.4730 ca         1 MJF      -0.148500
      9 C1           3.3480    -0.0060     1.2760 ca         1 MJF      -0.072500
     10 C9           1.9650    -0.0070    -1.3060 c3         1 MJF      -0.176400
     11 C10          0.9730    -0.1120    -2.4660 c3         1 MJF       0.022600
     12 C11          0.2980    -1.4840    -2.4370 c3         1 MJF      -0.269700
     13 C15         -0.5610    -1.6480    -3.6640 c          1 MJF       0.893600
     14 O17         -1.8740    -1.3710    -3.6060 o          1 MJF      -0.864550
     15 O16         -0.0680    -2.0280    -4.6990 o          1 MJF      -0.864550
     16 C12          1.3510    -2.5620    -2.4130 c          1 MJF       0.893600
     17 O14          1.9440    -2.8960    -1.2560 o          1 MJF      -0.864550
     18 O13          1.6610    -3.1260    -3.4360 o          1 MJF      -0.864550
     19 C19          1.7070     0.0590    -3.7720 ca         1 MJF      -0.026300
     20 C24          1.3700     1.0930    -4.6240 ca         1 MJF      -0.089500
     21 C23          2.0420     1.2490    -5.8210 ca         1 MJF      -0.152500
     22 C22          3.0540     0.3720    -6.1660 ca         1 MJF      -0.164000
     23 C21          3.3920    -0.6610    -5.3130 ca         1 MJF      -0.152500
     24 C20          2.7220    -0.8150    -4.1130 ca         1 MJF      -0.089500
     25 H91C         2.6400    -0.8540    -1.3300 hc         1 MJF       0.070700
     26 H92C         2.5340     0.9100    -1.3990 hc         1 MJF       0.070700
     27 H3           0.1710     0.0010     2.4920 ha         1 MJF       0.157500
     28 H1           3.8930    -0.0080     0.3390 ha         1 MJF       0.157500
     29 H4           1.4130     0.0010     4.6170 ha         1 MJF       0.126500
     30 H6           5.1150    -0.0050     2.4770 ha         1 MJF       0.126500
     31 H10          0.2220     0.6630    -2.3700 hc         1 MJF       0.045700
     32 H11         -0.3200    -1.5640    -1.5500 hc         1 MJF       0.061700
     33 H24          0.5770     1.7800    -4.3550 ha         1 MJF       0.151500
     34 H20          2.9870    -1.6250    -3.4440 ha         1 MJF       0.151500
     35 H23          1.7770     2.0590    -6.4900 ha         1 MJF       0.093000
     36 H22          3.5800     0.4930    -7.1050 ha         1 MJF       0.082000
     37 H21          4.1860    -1.3480    -5.5820 ha         1 MJF       0.093000
@<TRIPOS>BOND
     1     1     2 2
     2     2     3 1
     3     2    10 1
     4     3     4 ar
     5     3     9 ar
     6     4     5 ar
     7     5     6 ar
     8     6     7 1
     9     6     8 ar
    10     8     9 ar
    11    10    11 1
    12    11    12 1
    13    11    19 1
    14    12    13 1
    15    12    16 1
    16    13    14 1
    17    13    15 1
    18    16    17 1
    19    16    18 1
    20    19    20 ar
    21    19    24 ar
    22    20    21 ar
    23    21    22 ar
    24    22    23 ar
    25    23    24 ar
    26    10    25 1
    27    10    26 1
    28     4    27 1
    29     9    28 1
    30     5    29 1
    31     8    30 1
    32    11    31 1
    33    12    32 1
    34    20    33 1
    35    24    34 1
    36    21    35 1
    37    22    36 1
    38    23    37 1
@<TRIPOS>SUBSTRUCTURE
     1 MJF         1 TEMP              0 ****  ****    0 ROOT
