@<TRIPOS>MOLECULE
MJF
   37    38     1     0     0
SMALL
bcc


@<TRIPOS>ATOM
      1 O18         0.0870    0.9690   -0.4520 o         1 MJF     -0.573100
      2 C8          1.0510    0.2110   -0.2730 c         1 MJF      0.588700
      3 C2          1.8990    0.3940    0.9490 ca        1 MJF     -0.155600
      4 C3          1.8450    1.6090    1.6440 ca        1 MJF     -0.080500
      5 C4          2.6210    1.8150    2.7820 ca        1 MJF     -0.152000
      6 C5          3.4550    0.7880    3.2300 ca        1 MJF      0.022400
      7 CL7         4.4090    1.0310    4.6300 cl        1 MJF     -0.148400
      8 C6          3.5210   -0.4300    2.5510 ca        1 MJF     -0.152000
      9 C1          2.7430   -0.6250    1.4090 ca        1 MJF     -0.080500
     10 C9          1.4520   -0.9280   -1.1400 c3        1 MJF     -0.200400
     11 C10         0.7820   -1.0570   -2.5120 c3        1 MJF      0.032600
     12 C11         0.6660   -2.5570   -2.8180 c3        1 MJF     -0.269700
     13 C15        -0.0660   -2.8600   -4.1380 c         1 MJF      0.923100
     14 O17        -1.1210   -3.5670   -4.0490 o         1 MJF     -0.874550
     15 O16         0.3200   -2.3940   -5.2500 o         1 MJF     -0.874550
     16 C12         1.9960   -3.2920   -2.5600 c         1 MJF      0.923100
     17 O14         2.2630   -3.5740   -1.3390 o         1 MJF     -0.874550
     18 O13         2.8100   -3.5900   -3.4780 o         1 MJF     -0.874550
     19 C19         1.5070   -0.1960   -3.5020 ca        1 MJF     -0.040300
     20 C24         1.3570    1.1960   -3.4180 ca        1 MJF     -0.098000
     21 C23         2.0340    2.0450   -4.2930 ca        1 MJF     -0.169500
     22 C22         2.8670    1.5100   -5.2740 ca        1 MJF     -0.167000
     23 C21         3.0070    0.1270   -5.3780 ca        1 MJF     -0.169500
     24 C20         2.3320   -0.7280   -4.5050 ca        1 MJF     -0.098000
     25 H91C        2.5670   -0.9160   -1.2870 hc        1 MJF      0.110700
     26 H92C        1.2310   -1.8770   -0.5560 hc        1 MJF      0.110700
     27 H3          1.1730    2.4010    1.2760 ha        1 MJF      0.174500
     28 H1          2.8010   -1.5910    0.8680 ha        1 MJF      0.174500
     29 H4          2.5740    2.7720    3.3190 ha        1 MJF      0.134500
     30 H6          4.1810   -1.2350    2.9060 ha        1 MJF      0.134500
     31 H10        -0.2710   -0.6540   -2.4370 hc        1 MJF      0.046700
     32 H11        -0.0300   -2.9620   -2.0200 hc        1 MJF      0.038700
     33 H24         0.6900    1.6210   -2.6520 ha        1 MJF      0.181000
     34 H20         2.4000   -1.8360   -4.6150 ha        1 MJF      0.181000
     35 H23         1.9040    3.1320   -4.2120 ha        1 MJF      0.096500
     36 H22         3.4010    2.1750   -5.9650 ha        1 MJF      0.084000
     37 H21         3.6450   -0.3030   -6.1620 ha        1 MJF      0.096500
@<TRIPOS>BOND
     1    1    2 2   
     2    2    3 1   
     3    2   10 1   
     4    3    4 ar  
     5    3    9 ar  
     6    4    5 ar  
     7    4   27 1   
     8    5    6 ar  
     9    5   29 1   
    10    6    7 1   
    11    6    8 ar  
    12    8    9 ar  
    13    8   30 1   
    14    9   28 1   
    15   10   11 1   
    16   10   25 1   
    17   10   26 1   
    18   11   12 1   
    19   11   19 1   
    20   11   31 1   
    21   12   13 1   
    22   12   16 1   
    23   12   32 1   
    24   13   14 1   
    25   13   15 1   
    26   16   17 1   
    27   16   18 1   
    28   19   20 ar  
    29   19   24 ar  
    30   20   21 ar  
    31   20   33 1   
    32   21   22 ar  
    33   21   35 1   
    34   22   23 ar  
    35   22   36 1   
    36   23   24 ar  
    37   23   37 1   
    38   24   34 1   
@<TRIPOS>SUBSTRUCTURE
     1 MJF         1 TEMP              0 ****  ****    0 ROOT
