@<TRIPOS>MOLECULE
molecule
   84    87     1     0     0
SMALL
bcc


@<TRIPOS>ATOM
      1 C1           0.0000     0.0000     0.0000 ca         1 MJG       0.214100
      2 C2           1.4020     0.0000     0.0000 ca         1 MJG      -0.193600
      3 C3           2.0930     0.0000     1.2130 ca         1 MJG      -0.011000
      4 C4           1.3920     0.0020     2.4060 ca         1 MJG      -0.089100
      5 C5          -0.0010     0.0020     2.3980 ca         1 MJG       0.025700
      6 C6          -0.6900     0.0020     1.2030 ca         1 MJG      -0.243000
      7 O7          -0.6800     0.0050    -1.1750 os         1 MJG      -0.303900
      8 C8          -2.1060     0.0120    -1.0980 c3         1 MJG       0.124700
      9 C9           2.1420    -0.0020    -1.2760 c          1 MJG       0.687700
     10 N10          2.9630     1.0240    -1.5810 n          1 MJG      -0.490800
     11 O11          2.0130    -0.9280    -2.0540 o          1 MJG      -0.584100
     12 C12          3.2120     2.0960    -0.6080 c3         1 MJG       0.085000
     13 C13          2.8720     3.4400    -1.2620 c3         1 MJG       0.086500
     14 N14          3.5320     3.5050    -2.5730 n          1 MJG      -0.497800
     15 C15          3.2830     2.4330    -3.5460 c3         1 MJG       0.086500
     16 C16          3.6280     1.0860    -2.8900 c3         1 MJG       0.085000
     17 C17          4.3530     4.5310    -2.8770 c          1 MJG       0.662100
     18 C18          4.5190     5.6750    -1.9110 c3         1 MJG      -0.171100
     19 O19          4.9570     4.5330    -3.9290 o          1 MJG      -0.607100
     20 S20          2.2620     0.0030     3.9380 ss         1 MJG      -0.114800
     21 C21          2.7240     2.2090     5.5470 cc         1 MJG       0.409200
     22 C22          2.1420     1.6810     4.4620 cd         1 MJG      -0.062500
     23 S23          1.2340     2.9540     3.6490 ss         1 MJG      -0.283300
     24 C24          1.7430     4.1020     4.8830 cd         1 MJG       0.599300
     25 N25          2.4960     3.4950     5.7480 nc         1 MJG      -0.668000
     26 N26          1.3920     5.4470     4.9260 ns         1 MJG      -0.530400
     27 C27          1.9270     6.2540     5.8640 c          1 MJG       0.664700
     28 C28          1.4720     7.6550     5.9810 ca         1 MJG      -0.149600
     29 C29          2.0980     8.5240     6.8760 ca         1 MJG      -0.086500
     30 C30          1.6690     9.8300     6.9800 ca         1 MJG      -0.124500
     31 C31          0.6190    10.2810     6.1990 ca         1 MJG      -0.056300
     32 C32         -0.0070     9.4250     5.3100 ca         1 MJG      -0.124500
     33 C33          0.4170     8.1170     5.1920 ca         1 MJG      -0.086500
     34 O34          2.7840     5.8280     6.6140 o          1 MJG      -0.526100
     35 C35          0.1550    11.7100     6.3180 c3         1 MJG       0.197100
     36 N36          0.9000    12.5470     5.3690 n7         1 MJG      -0.811200
     37 C37          0.4730    13.9500     5.4570 c3         1 MJG       0.170500
     38 C38          0.7550    14.6530     4.1280 c3         1 MJG      -0.058000
     39 C39         -0.0170    13.9540     3.0060 c3         1 MJG      -0.081100
     40 C40          0.3110    16.1140     4.2190 c3         1 MJG      -0.081100
     41 C41          2.2540    14.5940     3.8270 c3         1 MJG      -0.081100
     42 C42         -0.7580     0.0010     3.7010 c3         1 MJG      -0.073800
     43 C43          1.2460    14.6490     6.5770 c3         1 MJG      -0.131100
     44 H3           3.1770     0.0000     1.2200 ha         1 MJG       0.157000
     45 H6          -1.7730     0.0020     1.2040 ha         1 MJG       0.147000
     46 H8          -2.5220    -0.0110    -2.0980 h1         1 MJG       0.046367
     47 H8A         -2.4370     0.9100    -0.5900 h1         1 MJG       0.046367
     48 H8B         -2.4420    -0.8590    -0.5480 h1         1 MJG       0.046367
     49 H12          4.2560     2.0870    -0.3180 h1         1 MJG       0.066950
     50 H12A         2.5860     1.9480     0.2640 h1         1 MJG       0.066950
     51 H13          3.2280     4.2490    -0.6350 h1         1 MJG       0.063700
     52 H13A         1.7990     3.5190    -1.3920 h1         1 MJG       0.063700
     53 H15          2.2390     2.4400    -3.8340 h1         1 MJG       0.063700
     54 H15A         3.9080     2.5830    -4.4180 h1         1 MJG       0.063700
     55 H16          4.7000     1.0110    -2.7570 h1         1 MJG       0.066950
     56 H16A         3.2750     0.2760    -3.5160 h1         1 MJG       0.066950
     57 H18          3.5440     6.0570    -1.6320 hc         1 MJG       0.060700
     58 H18A         5.0370     5.3270    -1.0250 hc         1 MJG       0.060700
     59 H18B         5.0950     6.4630    -2.3800 hc         1 MJG       0.060700
     60 HN26         0.7380     5.8150     4.2640 hn         1 MJG       0.336500
     61 H29          2.9200     8.1720     7.4880 ha         1 MJG       0.140500
     62 H30          2.1550    10.5050     7.6750 ha         1 MJG       0.139000
     63 H32         -0.8260     9.7850     4.7000 ha         1 MJG       0.139000
     64 H33         -0.0740     7.4480     4.4950 ha         1 MJG       0.140500
     65 H35          0.3300    12.0640     7.3270 h1         1 MJG       0.041700
     66 H35A        -0.9040    11.7650     6.0950 h1         1 MJG       0.041700
     67 HN36         1.8790    12.4830     5.5660 hn         1 MJG       0.359800
     68 H37         -0.5880    13.9920     5.6690 h1         1 MJG       0.059700
     69 H39         -1.0660    13.9000     3.2700 hc         1 MJG       0.036033
     70 H39A         0.3730    12.9530     2.8680 hc         1 MJG       0.036033
     71 H39B         0.0950    14.5160     2.0870 hc         1 MJG       0.036033
     72 H40          0.1480    16.5050     3.2210 hc         1 MJG       0.036033
     73 H40A        -0.6100    16.1770     4.7860 hc         1 MJG       0.036033
     74 H40B         1.0800    16.6960     4.7130 hc         1 MJG       0.036033
     75 H41          2.8040    15.0480     4.6430 hc         1 MJG       0.036033
     76 H41A         2.5600    13.5610     3.7160 hc         1 MJG       0.036033
     77 H41B         2.4600    15.1320     2.9100 hc         1 MJG       0.036033
     78 H42         -1.6220    -0.6470     3.6160 hc         1 MJG       0.060700
     79 H42A        -1.0840     1.0090     3.9290 hc         1 MJG       0.060700
     80 H42B        -0.1130    -0.3580     4.4940 hc         1 MJG       0.060700
     81 H43          2.2110    14.1730     6.7010 hc         1 MJG       0.040033
     82 H43A         0.6860    14.5770     7.5020 hc         1 MJG       0.040033
     83 H43B         1.3870    15.6920     6.3220 hc         1 MJG       0.040033
     84 H21          3.3400     1.6210     6.2160 h4         1 MJG       0.054100
@<TRIPOS>BOND
     1     2     1 ar
     2     1     6 ar
     3     1     7 1
     4     3     2 ar
     5     9     2 1
     6     3     4 ar
     7     3    44 1
     8    20     4 1
     9     4     5 ar
    10     5    42 1
    11     5     6 ar
    12     6    45 1
    13     7     8 1
    14     8    46 1
    15     8    47 1
    16     8    48 1
    17    11     9 2
    18     9    10 1
    19    12    10 1
    20    10    16 1
    21    13    12 1
    22    12    49 1
    23    12    50 1
    24    13    14 1
    25    13    51 1
    26    13    52 1
    27    14    17 1
    28    14    15 1
    29    15    16 1
    30    15    53 1
    31    15    54 1
    32    16    55 1
    33    16    56 1
    34    18    17 1
    35    17    19 2
    36    18    57 1
    37    18    58 1
    38    18    59 1
    39    20    22 1
    40    22    21 2
    41    21    25 1
    42    21    84 1
    43    23    22 1
    44    23    24 1
    45    24    26 1
    46    24    25 2
    47    27    26 1
    48    26    60 1
    49    34    27 2
    50    27    28 1
    51    33    28 ar
    52    28    29 ar
    53    29    30 ar
    54    29    61 1
    55    31    30 ar
    56    30    62 1
    57    32    31 ar
    58    31    35 1
    59    33    32 ar
    60    32    63 1
    61    33    64 1
    62    36    35 1
    63    35    65 1
    64    35    66 1
    65    37    36 1
    66    36    67 1
    67    38    37 1
    68    43    37 1
    69    37    68 1
    70    40    38 1
    71    41    38 1
    72    38    39 1
    73    39    69 1
    74    39    70 1
    75    39    71 1
    76    40    72 1
    77    40    73 1
    78    40    74 1
    79    41    75 1
    80    41    76 1
    81    41    77 1
    82    42    78 1
    83    42    79 1
    84    42    80 1
    85    43    81 1
    86    43    82 1
    87    43    83 1
@<TRIPOS>SUBSTRUCTURE
     1 MJG         1 TEMP              0 ****  ****    0 ROOT
