@<TRIPOS>MOLECULE
MJG
   84    87     1     0     0
SMALL
bcc


@<TRIPOS>ATOM
      1 C1           0.0000     0.0000     0.0000 ca         1 MJG       0.237100
      2 C2           1.4020     0.0000     0.0000 ca         1 MJG      -0.216600
      3 C3           2.0930     0.0000     1.2130 ca         1 MJG       0.030000
      4 C4           1.3920     0.0020     2.4060 ca         1 MJG      -0.055100
      5 C5          -0.0010     0.0020     2.3980 ca         1 MJG       0.043700
      6 C6          -0.6900     0.0020     1.2030 ca         1 MJG      -0.240000
      7 O7          -0.6800     0.0050    -1.1750 os         1 MJG      -0.284900
      8 C8          -2.1060     0.0120    -1.0980 c3         1 MJG       0.241700
      9 C9           2.1420    -0.0020    -1.2760 c          1 MJG       0.625700
     10 N10          2.9630     1.0240    -1.5810 n          1 MJG      -0.155800
     11 O11          2.0130    -0.9280    -2.0540 o          1 MJG      -0.625100
     12 C12          3.2120     2.0960    -0.6080 c3         1 MJG       0.024000
     13 C13          2.8720     3.4400    -1.2620 c3         1 MJG       0.032000
     14 N14          3.5320     3.5050    -2.5730 n          1 MJG      -0.166800
     15 C15          3.2830     2.4330    -3.5460 c3         1 MJG       0.032000
     16 C16          3.6280     1.0860    -2.8900 c3         1 MJG       0.024000
     17 C17          4.3530     4.5310    -2.8770 c          1 MJG       0.590100
     18 C18          4.5190     5.6750    -1.9110 c3         1 MJG      -0.073100
     19 O19          4.9570     4.5330    -3.9290 o          1 MJG      -0.641100
     20 S20          2.2620     0.0030     3.9380 ss         1 MJG      -0.213800
     21 C21          2.7240     2.2090     5.5470 cc         1 MJG       0.412200
     22 C22          2.1420     1.6810     4.4620 cd         1 MJG       0.010500
     23 S23          1.2340     2.9540     3.6490 ss         1 MJG      -0.370300
     24 C24          1.7430     4.1020     4.8830 cd         1 MJG       0.436300
     25 N25          2.4960     3.4950     5.7480 nc         1 MJG      -0.548000
     26 N26          1.3920     5.4470     4.9260 ns         1 MJG      -0.078400
     27 C27          1.9270     6.2540     5.8640 c          1 MJG       0.567700
     28 C28          1.4720     7.6550     5.9810 ca         1 MJG      -0.164600
     29 C29          2.0980     8.5240     6.8760 ca         1 MJG      -0.058500
     30 C30          1.6690     9.8300     6.9800 ca         1 MJG      -0.096500
     31 C31          0.6190    10.2810     6.1990 ca         1 MJG      -0.066300
     32 C32         -0.0070     9.4250     5.3100 ca         1 MJG      -0.096500
     33 C33          0.4170     8.1170     5.1920 ca         1 MJG      -0.058500
     34 O34          2.7840     5.8280     6.6140 o          1 MJG      -0.565100
     35 C35          0.1550    11.7100     6.3180 c3         1 MJG       0.194100
     36 N36          0.9000    12.5470     5.3690 n7         1 MJG      -0.584200
     37 C37          0.4730    13.9500     5.4570 c3         1 MJG       0.123500
     38 C38          0.7550    14.6530     4.1280 c3         1 MJG      -0.063000
     39 C39         -0.0170    13.9540     3.0060 c3         1 MJG       0.002567
     40 C40          0.3110    16.1140     4.2190 c3         1 MJG       0.002567
     41 C41          2.2540    14.5940     3.8270 c3         1 MJG       0.002567
     42 C42         -0.7580     0.0010     3.7010 c3         1 MJG       0.008200
     43 C43          1.2460    14.6490     6.5770 c3         1 MJG      -0.048100
     44 H3           3.1770     0.0000     1.2200 ha         1 MJG       0.126000
     45 H6          -1.7730     0.0020     1.2040 ha         1 MJG       0.134000
     46 H8          -2.5220    -0.0110    -2.0980 h1         1 MJG       0.001367
     47 H8A         -2.4370     0.9100    -0.5900 h1         1 MJG       0.001367
     48 H8B         -2.4420    -0.8590    -0.5480 h1         1 MJG       0.001367
     49 H12          4.2560     2.0870    -0.3180 h1         1 MJG       0.042200
     50 H12A         2.5860     1.9480     0.2640 h1         1 MJG       0.042200
     51 H13          3.2280     4.2490    -0.6350 h1         1 MJG       0.037450
     52 H13A         1.7990     3.5190    -1.3920 h1         1 MJG       0.037450
     53 H15          2.2390     2.4400    -3.8340 h1         1 MJG       0.037450
     54 H15A         3.9080     2.5830    -4.4180 h1         1 MJG       0.037450
     55 H16          4.7000     1.0110    -2.7570 h1         1 MJG       0.042200
     56 H16A         3.2750     0.2760    -3.5160 h1         1 MJG       0.042200
     57 H18          3.5440     6.0570    -1.6320 hc         1 MJG       0.025033
     58 H18A         5.0370     5.3270    -1.0250 hc         1 MJG       0.025033
     59 H18B         5.0950     6.4630    -2.3800 hc         1 MJG       0.025033
     60 HN26         0.7380     5.8150     4.2640 hn         1 MJG       0.179500
     61 H29          2.9200     8.1720     7.4880 ha         1 MJG       0.113000
     62 H30          2.1550    10.5050     7.6750 ha         1 MJG       0.111500
     63 H32         -0.8260     9.7850     4.7000 ha         1 MJG       0.111500
     64 H33         -0.0740     7.4480     4.4950 ha         1 MJG       0.113000
     65 H35          0.3300    12.0640     7.3270 h1         1 MJG       0.013700
     66 H35A        -0.9040    11.7650     6.0950 h1         1 MJG       0.013700
     67 HN36         1.8790    12.4830     5.5660 hn         1 MJG       0.265800
     68 H37         -0.5880    13.9920     5.6690 h1         1 MJG       0.037700
     69 H39         -1.0660    13.9000     3.2700 hc         1 MJG       0.007478
     70 H39A         0.3730    12.9530     2.8680 hc         1 MJG       0.007478
     71 H39B         0.0950    14.5160     2.0870 hc         1 MJG       0.007478
     72 H40          0.1480    16.5050     3.2210 hc         1 MJG       0.007478
     73 H40A        -0.6100    16.1770     4.7860 hc         1 MJG       0.007478
     74 H40B         1.0800    16.6960     4.7130 hc         1 MJG       0.007478
     75 H41          2.8040    15.0480     4.6430 hc         1 MJG       0.007478
     76 H41A         2.5600    13.5610     3.7160 hc         1 MJG       0.007478
     77 H41B         2.4600    15.1320     2.9100 hc         1 MJG       0.007478
     78 H42         -1.6220    -0.6470     3.6160 hc         1 MJG       0.030700
     79 H42A        -1.0840     1.0090     3.9290 hc         1 MJG       0.030700
     80 H42B        -0.1130    -0.3580     4.4940 hc         1 MJG       0.030700
     81 H43          2.2110    14.1730     6.7010 hc         1 MJG       0.014700
     82 H43A         0.6860    14.5770     7.5020 hc         1 MJG       0.014700
     83 H43B         1.3870    15.6920     6.3220 hc         1 MJG       0.014700
     84 H21          3.3400     1.6210     6.2160 h4         1 MJG       0.012100
@<TRIPOS>BOND
     1     1     2 ar  
     2     1     6 ar  
     3     1     7 1   
     4     2     3 ar  
     5     2     9 1   
     6     3     4 ar  
     7     3    44 1   
     8     4     5 ar  
     9     4    20 1   
    10     5     6 ar  
    11     5    42 1   
    12     6    45 1   
    13     7     8 1   
    14     8    46 1   
    15     8    47 1   
    16     8    48 1   
    17     9    10 1   
    18     9    11 2   
    19    10    12 1   
    20    10    16 1   
    21    12    13 1   
    22    12    49 1   
    23    12    50 1   
    24    13    14 1   
    25    13    51 1   
    26    13    52 1   
    27    14    15 1   
    28    14    17 1   
    29    15    16 1   
    30    15    53 1   
    31    15    54 1   
    32    16    55 1   
    33    16    56 1   
    34    17    18 1   
    35    17    19 2   
    36    18    57 1   
    37    18    58 1   
    38    18    59 1   
    39    20    22 1   
    40    21    22 2   
    41    21    25 1   
    42    21    84 1   
    43    22    23 1   
    44    23    24 1   
    45    24    25 2   
    46    24    26 1   
    47    26    27 1   
    48    26    60 1   
    49    27    28 1   
    50    27    34 2   
    51    28    29 ar  
    52    28    33 ar  
    53    29    30 ar  
    54    29    61 1   
    55    30    31 ar  
    56    30    62 1   
    57    31    32 ar  
    58    31    35 1   
    59    32    33 ar  
    60    32    63 1   
    61    33    64 1   
    62    35    36 1   
    63    35    65 1   
    64    35    66 1   
    65    36    37 1   
    66    36    67 1   
    67    37    38 1   
    68    37    43 1   
    69    37    68 1   
    70    38    39 1   
    71    38    40 1   
    72    38    41 1   
    73    39    69 1   
    74    39    70 1   
    75    39    71 1   
    76    40    72 1   
    77    40    73 1   
    78    40    74 1   
    79    41    75 1   
    80    41    76 1   
    81    41    77 1   
    82    42    78 1   
    83    42    79 1   
    84    42    80 1   
    85    43    81 1   
    86    43    82 1   
    87    43    83 1   
@<TRIPOS>SUBSTRUCTURE
     1 MJG         1 TEMP              0 ****  ****    0 ROOT
