@<TRIPOS>MOLECULE
MJI
   75    74     1     0     0
SMALL
bcc


@<TRIPOS>ATOM
      1 C1          0.2670   -0.2150   -0.5440 c3        1 MJI      0.123400
      2 O1         -0.8610    0.6230   -0.7530 os        1 MJI     -0.430600
      3 C2          1.4150    0.5300    0.1530 c3        1 MJI      0.187100
      4 O2          1.1010    0.7370    1.4930 os        1 MJI     -0.580200
      5 C3          2.6960   -0.3320    0.0990 c3        1 MJI      0.089400
      6 O3          2.8000   -0.8970   -1.2180 os        1 MJI     -0.400600
      7 C31         3.8540   -1.8060   -1.3610 c3        1 MJI      0.116400
      8 C32         5.1540   -1.0990   -1.8790 c3        1 MJI      0.583900
      9 F31         6.1590   -2.0010   -2.1520 f         1 MJI     -0.243967
     10 F32         5.0000   -0.4030   -3.0480 f         1 MJI     -0.243967
     11 F33         5.7220   -0.2150   -1.0020 f         1 MJI     -0.243967
     12 P2          1.3460    2.2690    2.1040 p5        1 MJI      1.426800
     13 O21         0.0030    2.8340    2.3370 o         1 MJI     -0.823500
     14 O22         2.4400    2.8690    1.3220 o         1 MJI     -0.823500
     15 C2P         1.0340    1.2970    4.4860 c3        1 MJI      0.182700
     16 O23         1.9480    1.7790    3.5540 os        1 MJI     -0.569200
     17 C11        -1.8310    0.5660    0.2930 c3        1 MJI      0.138400
     18 C12        -2.5220    1.9180    0.3480 c3        1 MJI     -0.105400
     19 C13        -3.8660    1.8000    1.0310 c3        1 MJI     -0.067400
     20 C14        -4.5210    3.1580    1.1740 c3        1 MJI     -0.080400
     21 C15        -5.8700    3.0510    1.8520 c3        1 MJI     -0.077400
     22 C16        -6.5220    4.4090    1.9960 c3        1 MJI     -0.079400
     23 C17        -7.8710    4.3040    2.6740 c3        1 MJI     -0.078400
     24 C18        -8.5240    5.6630    2.8160 c3        1 MJI     -0.079400
     25 C19        -9.8730    5.5580    3.4940 c3        1 MJI     -0.078400
     26 C20       -10.5250    6.9170    3.6350 c3        1 MJI     -0.079400
     27 C21       -11.8750    6.8120    4.3120 c3        1 MJI     -0.078400
     28 C22       -12.5270    8.1710    4.4510 c3        1 MJI     -0.079400
     29 C23       -13.8770    8.0660    5.1280 c3        1 MJI     -0.079400
     30 C24       -14.5290    9.4250    5.2670 c3        1 MJI     -0.079400
     31 C25       -15.8800    9.3220    5.9430 c3        1 MJI     -0.080400
     32 C26       -16.5330   10.6720    6.0830 c3        1 MJI     -0.092100
     33 H11        -0.0070   -1.1300    0.0400 h1        1 MJI      0.040200
     34 H12         0.5880   -0.5020   -1.5820 h1        1 MJI      0.040200
     35 H21         1.6090    1.5140   -0.3640 h1        1 MJI      0.079700
     36 H31         2.6320   -1.1570    0.8550 h1        1 MJI      0.053200
     37 H32         3.6000    0.3030    0.2960 h1        1 MJI      0.053200
     38 H311        3.5320   -2.5290   -2.1570 h1        1 MJI      0.071700
     39 H312        4.1150   -2.3360   -0.4100 h1        1 MJI      0.071700
     40 H2P1        1.1440    1.8830    5.4390 h1        1 MJI      0.006700
     41 H2P2       -0.0170    1.3880    4.1060 h1        1 MJI      0.006700
     42 H2P3        1.2690    0.2210    4.7130 h1        1 MJI      0.006700
     43 H111       -1.3520    0.3300    1.2790 h1        1 MJI      0.029200
     44 H112       -2.5570   -0.2520    0.0300 h1        1 MJI      0.029200
     45 H121       -2.6510    2.3160   -0.6920 hc        1 MJI      0.078200
     46 H122       -1.8630    2.6360    0.9130 hc        1 MJI      0.078200
     47 H131       -4.5370    1.1170    0.4460 hc        1 MJI      0.027700
     48 H132       -3.7280    1.3430    2.0470 hc        1 MJI      0.027700
     49 H141       -3.8490    3.8320    1.7690 hc        1 MJI      0.046200
     50 H142       -4.6450    3.6230    0.1610 hc        1 MJI      0.046200
     51 H151       -5.7440    2.5860    2.8650 hc        1 MJI      0.033200
     52 H152       -6.5390    2.3730    1.2590 hc        1 MJI      0.033200
     53 H161       -6.6460    4.8750    0.9830 hc        1 MJI      0.040200
     54 H162       -5.8530    5.0850    2.5900 hc        1 MJI      0.040200
     55 H171       -7.7470    3.8400    3.6880 hc        1 MJI      0.036700
     56 H172       -8.5400    3.6270    2.0800 hc        1 MJI      0.036700
     57 H181       -7.8550    6.3400    3.4110 hc        1 MJI      0.039200
     58 H182       -8.6470    6.1280    1.8030 hc        1 MJI      0.039200
     59 H191      -10.5410    4.8800    2.9000 hc        1 MJI      0.037700
     60 H192       -9.7490    5.0940    4.5080 hc        1 MJI      0.037700
     61 H201      -10.6480    7.3820    2.6210 hc        1 MJI      0.039700
     62 H202       -9.8570    7.5940    4.2300 hc        1 MJI      0.039700
     63 H211      -11.7520    6.3480    5.3260 hc        1 MJI      0.038200
     64 H212      -12.5420    6.1340    3.7170 hc        1 MJI      0.038200
     65 H221      -11.8600    8.8480    5.0470 hc        1 MJI      0.039200
     66 H222      -12.6490    8.6350    3.4370 hc        1 MJI      0.039200
     67 H231      -13.7550    7.6020    6.1420 hc        1 MJI      0.038200
     68 H232      -14.5440    7.3880    4.5320 hc        1 MJI      0.038200
     69 H241      -13.8630   10.1030    5.8620 hc        1 MJI      0.039200
     70 H242      -14.6520    9.8890    4.2530 hc        1 MJI      0.039200
     71 H251      -16.5450    8.6420    5.3470 hc        1 MJI      0.037700
     72 H252      -15.7560    8.8560    6.9560 hc        1 MJI      0.037700
     73 H261      -15.8970   11.3560    6.6950 hc        1 MJI      0.031033
     74 H262      -16.6880   11.1420    5.0820 hc        1 MJI      0.031033
     75 H263      -17.5270   10.5740    6.5830 hc        1 MJI      0.031033
@<TRIPOS>BOND
     1    1    2 1   
     2    1    3 1   
     3    1   33 1   
     4    1   34 1   
     5    2   17 1   
     6    3    4 1   
     7    3    5 1   
     8    3   35 1   
     9    4   12 1   
    10    5    6 1   
    11    5   36 1   
    12    5   37 1   
    13    6    7 1   
    14    7    8 1   
    15    7   38 1   
    16    7   39 1   
    17    8    9 1   
    18    8   10 1   
    19    8   11 1   
    20   12   13 1   
    21   12   14 1   
    22   12   16 1   
    23   15   16 1   
    24   15   40 1   
    25   15   41 1   
    26   15   42 1   
    27   17   18 1   
    28   17   43 1   
    29   17   44 1   
    30   18   19 1   
    31   18   45 1   
    32   18   46 1   
    33   19   20 1   
    34   19   47 1   
    35   19   48 1   
    36   20   21 1   
    37   20   49 1   
    38   20   50 1   
    39   21   22 1   
    40   21   51 1   
    41   21   52 1   
    42   22   23 1   
    43   22   53 1   
    44   22   54 1   
    45   23   24 1   
    46   23   55 1   
    47   23   56 1   
    48   24   25 1   
    49   24   57 1   
    50   24   58 1   
    51   25   26 1   
    52   25   59 1   
    53   25   60 1   
    54   26   27 1   
    55   26   61 1   
    56   26   62 1   
    57   27   28 1   
    58   27   63 1   
    59   27   64 1   
    60   28   29 1   
    61   28   65 1   
    62   28   66 1   
    63   29   30 1   
    64   29   67 1   
    65   29   68 1   
    66   30   31 1   
    67   30   69 1   
    68   30   70 1   
    69   31   32 1   
    70   31   71 1   
    71   31   72 1   
    72   32   73 1   
    73   32   74 1   
    74   32   75 1   
@<TRIPOS>SUBSTRUCTURE
     1 MJI         1 TEMP              0 ****  ****    0 ROOT
