@<TRIPOS>MOLECULE
molecule
   75    74     1     0     0
SMALL
bcc


@<TRIPOS>ATOM
      1 C1           0.0000     0.0000     0.0000 c3         1 MJI       0.117400
      2 O1          -0.4760     1.1660     0.6740 os         1 MJI      -0.341600
      3 C2           1.5310     0.0000     0.0000 c3         1 MJI       0.184100
      4 O2           2.0060     0.0000     1.3460 os         1 MJI      -0.524200
      5 C3           2.0410    -1.2490    -0.7220 c3         1 MJI       0.115400
      6 O3           3.4700    -1.2480    -0.7210 os         1 MJI      -0.316600
      7 C31          3.8840    -2.4330    -1.4060 c3         1 MJI       0.075400
      8 C32          5.4120    -2.4940    -1.4410 c3         1 MJI       0.621900
      9 F31          5.8170    -3.6530    -2.1120 f          1 MJI      -0.224300
     10 F32          5.9070    -1.3700    -2.1120 f          1 MJI      -0.224300
     11 F33          5.9090    -2.5130    -0.1340 f          1 MJI      -0.224300
     12 P2           2.8880     1.3350     1.5290 p5         1 MJI       1.272800
     13 O21          2.0430     2.5230     1.2710 o          1 MJI      -0.812000
     14 O22          4.1160     1.3130     0.4880 o          1 MJI      -0.812000
     15 C2P          4.2290     2.6020     3.1300 c3         1 MJI       0.147700
     16 O23          3.4590     1.4010     3.0320 os         1 MJI      -0.550200
     17 C11         -1.9040     1.1080     0.6410 c3         1 MJI       0.124400
     18 C12         -2.4810     2.3350     1.3490 c3         1 MJI      -0.079400
     19 C13         -4.0080     2.2720     1.3140 c3         1 MJI      -0.083400
     20 C14         -4.5850     3.4990     2.0220 c3         1 MJI      -0.079400
     21 C15         -6.1140     3.4370     1.9870 c3         1 MJI      -0.082400
     22 C16         -6.6910     4.6640     2.6960 c3         1 MJI      -0.082400
     23 C17         -8.2190     4.6020     2.6600 c3         1 MJI      -0.082400
     24 C18         -8.7970     5.8280     3.3690 c3         1 MJI      -0.082400
     25 C19        -10.3240     5.7670     3.3330 c3         1 MJI      -0.082400
     26 C20        -10.9020     6.9920     4.0420 c3         1 MJI      -0.081400
     27 C21        -12.4300     6.9320     4.0070 c3         1 MJI      -0.082400
     28 C22        -13.0080     8.1570     4.7150 c3         1 MJI      -0.081400
     29 C23        -14.5350     8.0960     4.6800 c3         1 MJI      -0.082400
     30 C24        -15.1130     9.3220     5.3880 c3         1 MJI      -0.081400
     31 C25        -16.6400     9.2600     5.3530 c3         1 MJI      -0.084400
     32 C26        -17.2180    10.4860     6.0610 c3         1 MJI      -0.092100
     33 H11         -0.3610     0.0000    -1.0210 h1         1 MJI       0.011700
     34 H12         -0.3610    -0.8850     0.5100 h1         1 MJI       0.011700
     35 H21          1.8910     0.8850    -0.5100 h1         1 MJI       0.104700
     36 H31          1.6800    -2.1340    -0.2120 h1         1 MJI       0.015200
     37 H32          1.6810    -1.2480    -1.7440 h1         1 MJI       0.015200
     38 H311         3.4990    -3.3020    -0.8870 h1         1 MJI       0.042200
     39 H312         3.4990    -2.4170    -2.4190 h1         1 MJI       0.042200
     40 H2P1         4.6360     2.6890     4.1300 h1         1 MJI       0.030033
     41 H2P2         5.0390     2.5710     2.4110 h1         1 MJI       0.030033
     42 H2P3         3.5940     3.4550     2.9230 h1         1 MJI       0.030033
     43 H111        -2.2400     0.2090     1.1430 h1         1 MJI       0.008700
     44 H112        -2.2400     1.0950    -0.3890 h1         1 MJI       0.008700
     45 H121        -2.1450     3.2340     0.8470 hc         1 MJI       0.062700
     46 H122        -2.1440     2.3490     2.3790 hc         1 MJI       0.062700
     47 H131        -4.3440     1.3730     1.8160 hc         1 MJI       0.033700
     48 H132        -4.3450     2.2580     0.2840 hc         1 MJI       0.033700
     49 H141        -4.2490     4.3980     1.5200 hc         1 MJI       0.044700
     50 H142        -4.2480     3.5130     3.0520 hc         1 MJI       0.044700
     51 H151        -6.4510     2.5380     2.4890 hc         1 MJI       0.037700
     52 H152        -6.4510     3.4230     0.9580 hc         1 MJI       0.037700
     53 H161        -6.3540     5.5630     2.1940 hc         1 MJI       0.041700
     54 H162        -6.3550     4.6770     3.7260 hc         1 MJI       0.041700
     55 H171        -8.5550     4.5890     1.6300 hc         1 MJI       0.038700
     56 H172        -8.5560     3.7030     3.1610 hc         1 MJI       0.038700
     57 H181        -8.4600     5.8410     4.3980 hc         1 MJI       0.041700
     58 H182        -8.4600     6.7270     2.8670 hc         1 MJI       0.041700
     59 H191       -10.6610     5.7530     2.3030 hc         1 MJI       0.039700
     60 H192       -10.6610     4.8670     3.8340 hc         1 MJI       0.039700
     61 H201       -10.5650     7.0050     5.0710 hc         1 MJI       0.040700
     62 H202       -10.5650     7.8910     3.5410 hc         1 MJI       0.040700
     63 H211       -12.7670     6.9180     2.9770 hc         1 MJI       0.039700
     64 H212       -12.7670     6.0320     4.5080 hc         1 MJI       0.039700
     65 H221       -12.6710     9.0560     4.2140 hc         1 MJI       0.040700
     66 H222       -12.6710     8.1700     5.7450 hc         1 MJI       0.040700
     67 H231       -14.8720     7.1970     5.1820 hc         1 MJI       0.040700
     68 H232       -14.8720     8.0820     3.6500 hc         1 MJI       0.040700
     69 H241       -14.7760     9.3360     6.4170 hc         1 MJI       0.040700
     70 H242       -14.7770    10.2210     4.8860 hc         1 MJI       0.040700
     71 H251       -16.9770     9.2460     4.3240 hc         1 MJI       0.039700
     72 H252       -16.9770     8.3620     5.8560 hc         1 MJI       0.039700
     73 H261       -16.8760    10.5050     7.0890 hc         1 MJI       0.031700
     74 H262       -18.3000    10.4380     6.0420 hc         1 MJI       0.031700
     75 H263       -16.8880    11.3850     5.5550 hc         1 MJI       0.031700
@<TRIPOS>BOND
     1     1     2 1
     2     1     3 1
     3     1    33 1
     4     1    34 1
     5     2    17 1
     6     3     4 1
     7     3     5 1
     8     3    35 1
     9     4    12 1
    10     5     6 1
    11     5    36 1
    12     5    37 1
    13     6     7 1
    14     7     8 1
    15     7    38 1
    16     7    39 1
    17     8     9 1
    18     8    10 1
    19     8    11 1
    20    12    13 1
    21    12    14 1
    22    12    16 1
    23    15    16 1
    24    15    40 1
    25    15    41 1
    26    15    42 1
    27    17    18 1
    28    17    43 1
    29    17    44 1
    30    18    19 1
    31    18    45 1
    32    18    46 1
    33    19    20 1
    34    19    47 1
    35    19    48 1
    36    20    21 1
    37    20    49 1
    38    20    50 1
    39    21    22 1
    40    21    51 1
    41    21    52 1
    42    22    23 1
    43    22    53 1
    44    22    54 1
    45    23    24 1
    46    23    55 1
    47    23    56 1
    48    24    25 1
    49    24    57 1
    50    24    58 1
    51    25    26 1
    52    25    59 1
    53    25    60 1
    54    26    27 1
    55    26    61 1
    56    26    62 1
    57    27    28 1
    58    27    63 1
    59    27    64 1
    60    28    29 1
    61    28    65 1
    62    28    66 1
    63    29    30 1
    64    29    67 1
    65    29    68 1
    66    30    31 1
    67    30    69 1
    68    30    70 1
    69    31    32 1
    70    31    71 1
    71    31    72 1
    72    32    73 1
    73    32    74 1
    74    32    75 1
@<TRIPOS>SUBSTRUCTURE
     1 MJI         1 TEMP              0 ****  ****    0 ROOT
