@<TRIPOS>MOLECULE
molecule
   46    49     1     0     0
SMALL
bcc


@<TRIPOS>ATOM
      1 C1           0.0000     0.0000     0.0000 c3         1 MJM      -0.081400
      2 C2           1.5290     0.0000     0.0000 c3         1 MJM      -0.087400
      3 C3           2.0530     0.0000     1.4380 c3         1 MJM      -0.054400
      4 C4           1.6020     1.2860     2.1370 c3         1 MJM      -0.265000
      5 C5           0.1040     1.3980     2.0340 c2         1 MJM       0.494300
      6 C6          -0.5140     1.2880     0.6520 c3         1 MJM      -0.120700
      7 C7           2.0540     1.2880     3.5660 c          1 MJM       0.577300
      8 C8           1.0830     1.4830     4.6420 ce         1 MJM      -0.222400
      9 C9          -0.2480     1.6230     4.3210 cf         1 MJM       0.204400
     10 N10         -0.6630     1.5600     3.0540 nf         1 MJM      -0.631300
     11 C11         -1.2550     1.8490     5.4200 c3         1 MJM      -0.047900
     12 C12          1.5260     1.5300     6.0560 ca         1 MJM      -0.032800
     13 C13          1.1190     0.5380     6.9480 ca         1 MJM      -0.098000
     14 C14          1.5320     0.5840     8.2620 ca         1 MJM      -0.144500
     15 C15          2.3520     1.6160     8.6990 ca         1 MJM       0.105100
     16 C16          2.7600     2.6050     7.8120 ca         1 MJM      -0.144500
     17 C17          2.3530     2.5620     6.4960 ca         1 MJM      -0.098000
     18 O18          3.2280     1.1270     3.8310 o          1 MJM      -0.521100
     19 O19          2.7530     1.6610     9.9960 os         1 MJM      -0.250200
     20 C20          3.6050     0.6970    10.4350 ca         1 MJM       0.134100
     21 C21          3.9420     0.6270    11.7790 ca         1 MJM      -0.181000
     22 C22          4.8070    -0.3540    12.2220 ca         1 MJM      -0.095500
     23 C23          5.3370    -1.2650    11.3280 ca         1 MJM      -0.163000
     24 C24          5.0030    -1.1980     9.9880 ca         1 MJM      -0.095500
     25 C25          4.1340    -0.2220     9.5400 ca         1 MJM      -0.181000
     26 H1          -0.3590    -0.0540    -1.0210 hc         1 MJM       0.052200
     27 H2          -0.3590    -0.8550     0.5600 hc         1 MJM       0.052200
     28 H3           1.8870     0.8850    -0.5110 hc         1 MJM       0.049200
     29 H4           1.8870    -0.8860    -0.5110 hc         1 MJM       0.049200
     30 H5           1.6540    -0.8570     1.9670 hc         1 MJM       0.061200
     31 H6           3.1350    -0.0450     1.4280 hc         1 MJM       0.061200
     32 H7          -0.2210     2.1410     0.0530 hc         1 MJM       0.068700
     33 H8          -1.5930     1.2470     0.7380 hc         1 MJM       0.068700
     34 H10         -0.8610     2.5670     6.1290 hc         1 MJM       0.058700
     35 H11         -2.1750     2.2310     4.9930 hc         1 MJM       0.058700
     36 H12         -1.4540     0.9130     5.9260 hc         1 MJM       0.058700
     37 H13          0.4790    -0.2680     6.6090 ha         1 MJM       0.139500
     38 H14          1.2160    -0.1860     8.9560 ha         1 MJM       0.146000
     39 H15          3.4010     3.4080     8.1550 ha         1 MJM       0.146000
     40 H16          2.6710     3.3340     5.8050 ha         1 MJM       0.139500
     41 H17          3.5260     1.3410    12.4800 ha         1 MJM       0.145500
     42 H18          5.0710    -0.4090    13.2710 ha         1 MJM       0.132500
     43 H19          6.0170    -2.0320    11.6770 ha         1 MJM       0.130000
     44 H20          5.4180    -1.9140     9.2890 ha         1 MJM       0.132500
     45 H21          3.8720    -0.1690     8.4900 ha         1 MJM       0.145500
     46 H22          2.0490     2.1320     1.6300 hc         1 MJM       0.102700
@<TRIPOS>BOND
     1    23    22 ar
     2    23    24 ar
     3    22    21 ar
     4    24    25 ar
     5    21    20 ar
     6    25    20 ar
     7    20    19 1
     8    19    15 1
     9    15    16 ar
    10    15    14 ar
    11    16    17 ar
    12    14    13 ar
    13    17    12 ar
    14    13    12 ar
    15    12     8 1
    16     8     7 1
    17     8     9 2
    18    18     7 2
    19    11     9 1
    20     7     4 1
    21     9    10 1
    22     4     5 1
    23     4     3 1
    24    10     5 2
    25     5     6 1
    26     3     2 1
    27     6     1 1
    28     2     1 1
    29     1    26 1
    30     1    27 1
    31     2    28 1
    32     2    29 1
    33     3    30 1
    34     3    31 1
    35     6    32 1
    36     6    33 1
    37    11    34 1
    38    11    35 1
    39    11    36 1
    40    13    37 1
    41    14    38 1
    42    16    39 1
    43    17    40 1
    44    21    41 1
    45    22    42 1
    46    23    43 1
    47    24    44 1
    48    25    45 1
    49     4    46 1
@<TRIPOS>SUBSTRUCTURE
     1 MJM         1 TEMP              0 ****  ****    0 ROOT
