@<TRIPOS>MOLECULE
molecule
   38    40     1     0     0
SMALL
bcc


@<TRIPOS>ATOM
      1 N3          -1.5500     0.0110    -2.0480 n1         1 MJP      -0.366800
      2 C16         -0.8570     0.0000    -1.1480 cg         1 MJP       0.228500
      3 C14          0.0000     0.0000     0.0000 cc         1 MJP      -0.084900
      4 C15          1.3630     0.0000     0.0000 cd         1 MJP      -0.031100
      5 N2           1.8220     0.0000     1.2770 na         1 MJP      -0.149400
      6 C11          0.7660    -0.0000     2.1670 ca         1 MJP      -0.063200
      7 C10          0.6930     0.0000     3.5560 ca         1 MJP      -0.115000
      8 C9          -0.5340    -0.0000     4.1820 ca         1 MJP      -0.105000
      9 C12         -0.4190     0.0070     1.4140 ca         1 MJP      -0.090800
     10 C13         -1.6560     0.0140     2.0550 ca         1 MJP      -0.134000
     11 C8          -1.7090    -0.0010     3.4360 ca         1 MJP       0.100100
     12 O1          -2.9130    -0.0030     4.0680 os         1 MJP      -0.225200
     13 C2          -3.6980    -1.1050     3.9440 ca         1 MJP       0.195100
     14 C1          -3.2140    -2.2300     3.2910 ca         1 MJP      -0.167000
     15 C3          -4.9800    -1.1080     4.4750 ca         1 MJP      -0.167000
     16 C4          -5.7770    -2.2280     4.3480 ca         1 MJP      -0.063500
     17 C5          -5.2970    -3.3520     3.6900 ca         1 MJP      -0.121400
     18 C           -4.0110    -3.3510     3.1630 ca         1 MJP      -0.063500
     19 N           -6.1050    -4.4890     3.5620 ns         1 MJP      -0.340100
     20 C6          -7.4340    -4.3530     3.3900 c          1 MJP       0.556100
     21 O           -7.9420    -3.2510     3.4200 o          1 MJP      -0.575100
     22 C7          -8.2920    -5.5710     3.1600 c3         1 MJP       0.066800
     23 N1          -9.6940    -5.1600     3.0040 nz         1 MJP      -0.821600
     24 H15          1.7970    -0.3010    -0.9450 h4         1 MJP       0.198000
     25 H2           2.7240     0.2750     1.6120 hn         1 MJP       0.310700
     26 H10          1.6120    -0.1570     4.1080 ha         1 MJP       0.145000
     27 H9          -0.5540     0.3130     5.2190 ha         1 MJP       0.159000
     28 H13         -2.2730     0.0660     1.1660 ha         1 MJP       0.171000
     29 H1          -2.4970    -2.1410     2.4840 ha         1 MJP       0.166000
     30 H3          -5.4150    -0.3200     5.0790 ha         1 MJP       0.166000
     31 H           -3.8100    -4.3000     2.6810 ha         1 MJP       0.147000
     32 H4          -6.7400    -2.5780     4.7010 ha         1 MJP       0.147000
     33 HA          -6.4140    -5.1110     4.2830 hn         1 MJP       0.274500
     34 H71C        -8.3300    -5.8340     4.2100 hx         1 MJP       0.140200
     35 H72C        -7.7010    -6.2950     2.6130 hx         1 MJP       0.140200
     36 H11N        -9.9710    -5.3220     2.0560 hn         1 MJP       0.458133
     37 H12N        -9.8500    -4.1760     2.9060 hn         1 MJP       0.458133
     38 H131       -10.5390    -5.2400     3.5340 hn         1 MJP       0.458133
@<TRIPOS>BOND
     1     1     2 3
     2     2     3 1
     3     3     4 2
     4     3     9 1
     5     4     5 1
     6     5     6 1
     7     6     7 ar
     8     6     9 ar
     9     7     8 ar
    10     8    11 ar
    11     9    10 ar
    12    10    11 ar
    13    11    12 1
    14    12    13 1
    15    13    14 ar
    16    13    15 ar
    17    14    18 ar
    18    15    16 ar
    19    16    17 ar
    20    17    18 ar
    21    17    19 1
    22    19    20 1
    23    20    21 2
    24    20    22 1
    25    22    23 1
    26     4    24 1
    27     5    25 1
    28     7    26 1
    29     8    27 1
    30    10    28 1
    31    14    29 1
    32    15    30 1
    33    18    31 1
    34    16    32 1
    35    19    33 1
    36    22    34 1
    37    22    35 1
    38    23    36 1
    39    23    37 1
    40    38    23 1
@<TRIPOS>SUBSTRUCTURE
     1 MJP         1 TEMP              0 ****  ****    0 ROOT
