@<TRIPOS>MOLECULE
MJQ
   71    74     1     0     0
SMALL
bcc


@<TRIPOS>ATOM
      1 CAW          0.0000     0.0000     0.0000 ca         1 MJQ      -0.087000
      2 CAX          1.3790     0.0000     0.0000 ca         1 MJQ      -0.099000
      3 CAY          2.0740     0.0000     1.1960 ca         1 MJQ      -0.049300
      4 CAZ          3.5810    -0.0000     1.1890 c3         1 MJQ       0.056200
      5 CAO          1.3910    -0.0010     2.4000 ca         1 MJQ      -0.099000
      6 CAN          0.0110     0.0000     2.4140 ca         1 MJQ      -0.087000
      7 CAM         -0.6960     0.0010     1.2110 ca         1 MJQ      -0.157600
      8 CAL         -2.1740    -0.0000     1.2170 c          1 MJQ       0.615700
      9 OAV         -2.7860     0.5430     0.3180 o          1 MJQ      -0.612100
     10 NAK         -2.8430    -0.6000     2.2210 n          1 MJQ      -0.131800
     11 CAU         -2.1200    -1.0670     3.4070 c3         1 MJQ      -0.064000
     12 CBC         -2.3830    -0.1130     4.5730 c3         1 MJQ      -0.098400
     13 CBD         -1.6290    -0.6000     5.8120 c3         1 MJQ      -0.050200
     14 NBE         -1.8820     0.3170     6.9310 nz         1 MJQ       0.087400
     15 CAJ         -4.2920    -0.7880     2.1260 c3         1 MJQ       0.056900
     16 CAB         -4.9940     0.1670     3.0940 c3         1 MJQ      -0.079700
     17 CAA         -4.6420     1.6110     2.7330 c3         1 MJQ      -0.004100
     18 CAC         -6.5090    -0.0290     2.9950 c3         1 MJQ      -0.004100
     19 CAI         -4.6400    -2.2100     2.4830 cc         1 MJQ       0.083900
     20 OAH         -4.1070    -2.7410     3.5880 os         1 MJQ      -0.198200
     21 CAG         -4.3650    -4.0060     3.9800 ca         1 MJQ       0.153100
     22 CAF         -3.7960    -4.5290     5.1340 ca         1 MJQ      -0.166000
     23 CAE         -4.0790    -5.8260     5.5100 ca         1 MJQ       0.021400
     24 ClA         -3.3670    -6.4770     6.9530 cl         1 MJQ      -0.000400
     25 CAP         -4.9280    -6.6160     4.7460 ca         1 MJQ      -0.128000
     26 CAQ         -5.4980    -6.1190     3.6070 ca         1 MJQ       0.024000
     27 CAR         -5.2230    -4.8100     3.2120 ca         1 MJQ      -0.231600
     28 CAS         -5.8170    -4.2320     1.9910 c          1 MJQ       0.640900
     29 OBA         -6.5680    -4.8800     1.2820 o          1 MJQ      -0.542100
     30 CAT         -5.4780    -2.8890     1.6780 cd         1 MJQ      -0.242400
     31 CBB         -6.0490    -2.2300     0.4500 c3         1 MJQ       0.091100
     32 CBG         -5.2440    -2.6340    -0.7580 ca         1 MJQ      -0.106300
     33 CBF         -5.6720    -3.6790    -1.5560 ca         1 MJQ      -0.107500
     34 CBI         -4.9340    -4.0500    -2.6640 ca         1 MJQ      -0.095000
     35 CBJ         -3.7660    -3.3770    -2.9740 ca         1 MJQ      -0.095000
     36 CBK         -3.3390    -2.3320    -2.1770 ca         1 MJQ      -0.095000
     37 CBH         -4.0790    -1.9580    -1.0710 ca         1 MJQ      -0.107500
     38 HAW         -0.5420     0.0580    -0.9360 ha         1 MJQ       0.121000
     39 HAX          1.9190    -0.0070    -0.9390 ha         1 MJQ       0.112000
     40 HAZ1         3.9450     0.8490     1.7550 hc         1 MJQ       0.017033
     41 HAZ2         3.9440    -0.9160     1.6390 hc         1 MJQ       0.017033
     42 HAZ3         3.9370     0.0660     0.1680 hc         1 MJQ       0.017033
     43 HAO          1.9410     0.0000     3.3330 ha         1 MJQ       0.112000
     44 HAN         -0.5190     0.1020     3.3530 ha         1 MJQ       0.121000
     45 HAU1        -1.0580    -1.0940     3.1960 h1         1 MJQ       0.093200
     46 HAU2        -2.4610    -2.0610     3.6700 h1         1 MJQ       0.093200
     47 HAJ         -4.6180    -0.5790     1.1140 h1         1 MJQ       0.125700
     48 HBC1        -2.0420     0.8810     4.3110 hc         1 MJQ       0.059200
     49 HBC2        -3.4450    -0.0860     4.7850 hc         1 MJQ       0.059200
     50 HBD1        -1.9700    -1.5940     6.0750 hx         1 MJQ       0.085700
     51 HBD2        -0.5660    -0.6270     5.6000 hx         1 MJQ       0.085700
     52 HBE1        -1.3310     0.0410     7.7200 hn         1 MJQ       0.223800
     53 HBE2        -2.8520     0.2870     7.1740 hn         1 MJQ       0.223800
     54 HAB         -4.6680    -0.0420     4.1060 hc         1 MJQ       0.012700
     55 HAA1        -3.5710     1.7530     2.8120 hc         1 MJQ       0.016200
     56 HAA2        -4.9590     1.8170     1.7180 hc         1 MJQ       0.016200
     57 HAA3        -5.1470     2.2860     3.4130 hc         1 MJQ       0.016200
     58 HAC1        -6.8300     0.1450     1.9750 hc         1 MJQ       0.016200
     59 HAC2        -7.0070     0.6710     3.6550 hc         1 MJQ       0.016200
     60 HAC3        -6.7620    -1.0420     3.2850 hc         1 MJQ       0.016200
     61 HAF         -3.0650    -3.9520     5.6870 ha         1 MJQ       0.101000
     62 HAP         -5.1410    -7.6320     5.0550 ha         1 MJQ       0.132000
     63 HAQ         -6.1600    -6.7390     3.0140 ha         1 MJQ       0.137000
     64 HBB1        -6.0100    -1.1540     0.5660 hc         1 MJQ       0.038700
     65 HBB2        -7.0780    -2.5420     0.3180 hc         1 MJQ       0.038700
     66 HBF         -6.5870    -4.2060    -1.3140 ha         1 MJQ       0.122000
     67 HBH         -3.7430    -1.1390    -0.4460 ha         1 MJQ       0.122000
     68 HBI         -5.2690    -4.8690    -3.2890 ha         1 MJQ       0.105000
     69 HBJ         -3.1870    -3.6690    -3.8420 ha         1 MJQ       0.106000
     70 HBK         -2.4250    -1.8040    -2.4210 ha         1 MJQ       0.105000
     71 HBE3        -1.6070     1.2440     6.6720 hn         1 MJQ       0.223800
@<TRIPOS>BOND
     1     1     2 ar  
     2     1     7 ar  
     3     1    38 1   
     4     2     3 ar  
     5     2    39 1   
     6     3     4 1   
     7     3     5 ar  
     8     4    40 1   
     9     4    41 1   
    10     4    42 1   
    11     5     6 ar  
    12     5    43 1   
    13     6     7 ar  
    14     6    44 1   
    15     7     8 1   
    16     8     9 2   
    17     8    10 1   
    18    10    11 1   
    19    10    15 1   
    20    11    12 1   
    21    11    45 1   
    22    11    46 1   
    23    12    13 1   
    24    12    48 1   
    25    12    49 1   
    26    13    14 1   
    27    13    50 1   
    28    13    51 1   
    29    14    52 1   
    30    14    53 1   
    31    14    71 1   
    32    15    16 1   
    33    15    19 1   
    34    15    47 1   
    35    16    17 1   
    36    16    18 1   
    37    16    54 1   
    38    17    55 1   
    39    17    56 1   
    40    17    57 1   
    41    18    58 1   
    42    18    59 1   
    43    18    60 1   
    44    19    20 1   
    45    19    30 2   
    46    20    21 1   
    47    21    22 ar  
    48    21    27 ar  
    49    22    23 ar  
    50    22    61 1   
    51    23    24 1   
    52    23    25 ar  
    53    25    26 ar  
    54    25    62 1   
    55    26    27 ar  
    56    26    63 1   
    57    27    28 1   
    58    28    29 2   
    59    28    30 1   
    60    30    31 1   
    61    31    32 1   
    62    31    64 1   
    63    31    65 1   
    64    32    33 ar  
    65    32    37 ar  
    66    33    34 ar  
    67    33    66 1   
    68    34    35 ar  
    69    34    68 1   
    70    35    36 ar  
    71    35    69 1   
    72    36    37 ar  
    73    36    70 1   
    74    37    67 1   
@<TRIPOS>SUBSTRUCTURE
     1 MJQ         1 TEMP              0 ****  ****    0 ROOT
