@<TRIPOS>MOLECULE
molecule
   49    54     1     0     0
SMALL
bcc


@<TRIPOS>ATOM
      1 N19          0.0000     0.0000     0.0000 nz         1 MJU      -0.808600
      2 C17          1.4690     0.0000     0.0000 c3         1 MJU       0.078500
      3 C16          2.0050     0.0000     1.4500 c3         1 MJU      -0.103400
      4 C15          2.2970    -1.4990     1.7120 c3         1 MJU       0.143800
      5 C18          2.0030    -1.3020    -0.6270 c3         1 MJU       0.139800
      6 N14          2.8190    -1.9770     0.4060 nh         1 MJU      -0.667300
      7 C10          2.7120    -3.3520     0.3020 ca         1 MJU       0.642200
      8 C7           3.8310    -4.1360    -0.0090 cp         1 MJU      -0.289600
      9 C3           5.2460    -3.8480    -0.2850 cp         1 MJU      -0.082000
     10 C4           5.9990    -2.6770    -0.3380 ca         1 MJU      -0.071000
     11 C5           7.3440    -2.7400    -0.6320 ca         1 MJU      -0.148000
     12 C6           7.9500    -3.9630    -0.8730 ca         1 MJU      -0.081000
     13 C1           7.2170    -5.1310    -0.8230 ca         1 MJU      -0.141000
     14 N11          1.5450    -3.9590     0.5010 nb         1 MJU      -0.824000
     15 C12          1.4390    -5.2780     0.4020 ca         1 MJU       0.815300
     16 N13          2.4710    -6.0520     0.1050 nb         1 MJU      -0.758000
     17 C8           3.6780    -5.5280    -0.1040 ca         1 MJU       0.561800
     18 N9           4.8960    -6.0780    -0.4190 na         1 MJU      -0.270000
     19 C2           5.8590    -5.0880    -0.5290 ca         1 MJU       0.004800
     20 S20         -0.1330    -6.0260     0.6760 ss         1 MJU      -0.194200
     21 C21          0.3180    -7.7270     0.5880 ca         1 MJU      -0.155400
     22 C26          0.6340    -8.4340     1.7550 ca         1 MJU       0.496200
     23 N25          0.9730    -9.6980     1.7210 nb         1 MJU      -0.652000
     24 C24          1.0340   -10.3770     0.5710 ca         1 MJU       0.587000
     25 N27          1.3820   -11.6700     0.5570 nb         1 MJU      -0.621000
     26 C28          1.4360   -12.3190    -0.5830 ca         1 MJU       0.341900
     27 C29          1.1350   -11.6800    -1.7860 ca         1 MJU       0.299900
     28 N30          0.7910   -10.4120    -1.8010 nb         1 MJU      -0.626000
     29 C23          0.7290    -9.7300    -0.6530 ca         1 MJU       0.221300
     30 C22          0.3570    -8.3720    -0.6340 ca         1 MJU      -0.033300
     31 H1          -0.3340    -0.7840     0.5250 hn         1 MJU       0.456800
     32 H2          -0.3340     0.8470     0.4160 hn         1 MJU       0.456800
     33 H4           1.8500     0.8580    -0.5390 hx         1 MJU       0.122700
     34 H5           2.9150     0.5840     1.5200 hc         1 MJU       0.087700
     35 H6           1.2510     0.3670     2.1360 hc         1 MJU       0.087700
     36 H7           1.3860    -2.0240     1.9720 h1         1 MJU       0.083200
     37 H8           3.0460    -1.6110     2.4860 h1         1 MJU       0.083200
     38 H9           1.1760    -1.9380    -0.9160 h1         1 MJU       0.083200
     39 H10          2.6180    -1.0700    -1.4880 h1         1 MJU       0.083200
     40 H11          5.5290    -1.7200    -0.1500 ha         1 MJU       0.137000
     41 H12          7.9300    -1.8300    -0.6740 ha         1 MJU       0.142000
     42 H13          9.0080    -4.0020    -1.1030 ha         1 MJU       0.148000
     43 H14          7.7000    -6.0810    -1.0140 ha         1 MJU       0.144000
     44 H15          5.0650    -7.0550    -0.5500 hn         1 MJU       0.322700
     45 H16          0.5960    -7.9230     2.7100 h4         1 MJU       0.042100
     46 H17          1.7180   -13.3650    -0.5890 h4         1 MJU       0.046100
     47 H18          1.1850   -12.2340    -2.7160 h4         1 MJU       0.043100
     48 H19         -0.1300    -7.9320    -1.4960 ha         1 MJU       0.166000
     49 H193        -0.3340    -0.0480    -0.9420 hn         1 MJU       0.456800
@<TRIPOS>BOND
     1    26    25 ar
     2    26    27 ar
     3    25    24 ar
     4    27    28 ar
     5    24    23 ar
     6    24    29 ar
     7    23    22 ar
     8    28    29 ar
     9    29    30 ar
    10    22    21 ar
    11    30    21 ar
    12    21    20 1
    13     1     2 1
    14    20    15 1
    15     2     5 1
    16     2     3 1
    17     5     6 1
    18    14    15 ar
    19    14     7 ar
    20    15    16 ar
    21     3     4 1
    22     6     7 1
    23     6     4 1
    24    16    17 ar
    25     7     8 ar
    26    17     8 ar
    27    17    18 1
    28     8     9 1
    29    18    19 1
    30     9    10 ar
    31     9    19 ar
    32    10    11 ar
    33    19    13 ar
    34    13    12 ar
    35    11    12 ar
    36     1    31 1
    37     1    32 1
    38     2    33 1
    39     3    34 1
    40     3    35 1
    41     4    36 1
    42     4    37 1
    43     5    38 1
    44     5    39 1
    45    10    40 1
    46    11    41 1
    47    12    42 1
    48    13    43 1
    49    18    44 1
    50    22    45 1
    51    26    46 1
    52    27    47 1
    53    30    48 1
    54    49     1 1
@<TRIPOS>SUBSTRUCTURE
     1 MJU         1 TEMP              0 ****  ****    0 ROOT
