@<TRIPOS>MOLECULE
MJU
   49    54     1     0     0
SMALL
bcc


@<TRIPOS>ATOM
      1 N19          0.0000     0.0000     0.0000 nz         1 MJU       0.074400
      2 C17          1.4690     0.0000     0.0000 c3         1 MJU      -0.096500
      3 C16          2.0050     0.0000     1.4500 c3         1 MJU      -0.023400
      4 C15          2.2970    -1.4990     1.7120 c3         1 MJU       0.138800
      5 C18          2.0030    -1.3020    -0.6270 c3         1 MJU       0.151800
      6 N14          2.8190    -1.9770     0.4060 nh         1 MJU      -0.483300
      7 C10          2.7120    -3.3520     0.3020 ca         1 MJU       0.538200
      8 C7           3.8310    -4.1360    -0.0090 cp         1 MJU      -0.288600
      9 C3           5.2460    -3.8480    -0.2850 cp         1 MJU      -0.069000
     10 C4           5.9990    -2.6770    -0.3380 ca         1 MJU      -0.043000
     11 C5           7.3440    -2.7400    -0.6320 ca         1 MJU      -0.112000
     12 C6           7.9500    -3.9630    -0.8730 ca         1 MJU      -0.054000
     13 C1           7.2170    -5.1310    -0.8230 ca         1 MJU      -0.095000
     14 N11          1.5450    -3.9590     0.5010 nb         1 MJU      -0.701000
     15 C12          1.4390    -5.2780     0.4020 ca         1 MJU       0.771300
     16 N13          2.4710    -6.0520     0.1050 nb         1 MJU      -0.629000
     17 C8           3.6780    -5.5280    -0.1040 ca         1 MJU       0.327800
     18 N9           4.8960    -6.0780    -0.4190 na         1 MJU       0.272000
     19 C2           5.8590    -5.0880    -0.5290 ca         1 MJU      -0.187200
     20 S20         -0.1330    -6.0260     0.6760 ss         1 MJU      -0.337200
     21 C21          0.3180    -7.7270     0.5880 ca         1 MJU      -0.107400
     22 C26          0.6340    -8.4340     1.7550 ca         1 MJU       0.468200
     23 N25          0.9730    -9.6980     1.7210 nb         1 MJU      -0.535000
     24 C24          1.0340   -10.3770     0.5710 ca         1 MJU       0.495000
     25 N27          1.3820   -11.6700     0.5570 nb         1 MJU      -0.512000
     26 C28          1.4360   -12.3190    -0.5830 ca         1 MJU       0.320900
     27 C29          1.1350   -11.6800    -1.7860 ca         1 MJU       0.291900
     28 N30          0.7910   -10.4120    -1.8010 nb         1 MJU      -0.520000
     29 C23          0.7290    -9.7300    -0.6530 ca         1 MJU       0.186300
     30 C22          0.3570    -8.3720    -0.6340 ca         1 MJU      -0.013300
     31 H1          -0.3340    -0.7840     0.5250 hn         1 MJU       0.227800
     32 H2          -0.3340     0.8470     0.4160 hn         1 MJU       0.227800
     33 H4           1.8500     0.8580    -0.5390 hx         1 MJU       0.096700
     34 H5           2.9150     0.5840     1.5200 hc         1 MJU       0.050200
     35 H6           1.2510     0.3670     2.1360 hc         1 MJU       0.050200
     36 H7           1.3860    -2.0240     1.9720 h1         1 MJU       0.048200
     37 H8           3.0460    -1.6110     2.4860 h1         1 MJU       0.048200
     38 H9           1.1760    -1.9380    -0.9160 h1         1 MJU       0.045200
     39 H10          2.6180    -1.0700    -1.4880 h1         1 MJU       0.045200
     40 H11          5.5290    -1.7200    -0.1500 ha         1 MJU       0.106000
     41 H12          7.9300    -1.8300    -0.6740 ha         1 MJU       0.113000
     42 H13          9.0080    -4.0020    -1.1030 ha         1 MJU       0.114000
     43 H14          7.7000    -6.0810    -1.0140 ha         1 MJU       0.114000
     44 H15          5.0650    -7.0550    -0.5500 hn         1 MJU       0.135700
     45 H16          0.5960    -7.9230     2.7100 h4         1 MJU      -0.004900
     46 H17          1.7180   -13.3650    -0.5890 h4         1 MJU      -0.002900
     47 H18          1.1850   -12.2340    -2.7160 h4         1 MJU      -0.002900
     48 H19         -0.1300    -7.9320    -1.4960 ha         1 MJU       0.133000
     49 H193        -0.3340    -0.0480    -0.9420 hn         1 MJU       0.227800
@<TRIPOS>BOND
     1     1     2 1   
     2     1    31 1   
     3     1    32 1   
     4     1    49 1   
     5     2     3 1   
     6     2     5 1   
     7     2    33 1   
     8     3     4 1   
     9     3    34 1   
    10     3    35 1   
    11     4     6 1   
    12     4    36 1   
    13     4    37 1   
    14     5     6 1   
    15     5    38 1   
    16     5    39 1   
    17     6     7 1   
    18     7     8 ar  
    19     7    14 ar  
    20     8     9 1   
    21     8    17 ar  
    22     9    10 ar  
    23     9    19 ar  
    24    10    11 ar  
    25    10    40 1   
    26    11    12 ar  
    27    11    41 1   
    28    12    13 ar  
    29    12    42 1   
    30    13    19 ar  
    31    13    43 1   
    32    14    15 ar  
    33    15    16 ar  
    34    15    20 1   
    35    16    17 ar  
    36    17    18 1   
    37    18    19 1   
    38    18    44 1   
    39    20    21 1   
    40    21    22 ar  
    41    21    30 ar  
    42    22    23 ar  
    43    22    45 1   
    44    23    24 ar  
    45    24    25 ar  
    46    24    29 ar  
    47    25    26 ar  
    48    26    27 ar  
    49    26    46 1   
    50    27    28 ar  
    51    27    47 1   
    52    28    29 ar  
    53    29    30 ar  
    54    30    48 1   
@<TRIPOS>SUBSTRUCTURE
     1 MJU         1 TEMP              0 ****  ****    0 ROOT
