@<TRIPOS>MOLECULE
molecule
   92    96     1     0     0
SMALL
bcc


@<TRIPOS>ATOM
      1 N1           0.0000     0.0000     0.0000 n3         1 MK1      -0.670600
      2 C1           1.4670     0.0000     0.0000 c3         1 MK1       0.144800
      3 C2           1.9820     0.0000     1.4400 c3         1 MK1       0.073500
      4 C3           3.4870    -0.0750     1.4350 c          1 MK1       0.663100
      5 O1           4.1390     0.8130     1.9440 o          1 MK1      -0.599100
      6 N2           4.1100    -1.1250     0.8640 ns         1 MK1      -0.580900
      7 C4           5.5720    -1.1970     0.8590 c3         1 MK1       0.122400
      8 C5           6.0170    -2.4800     0.1550 c3         1 MK1      -0.100767
      9 C6           6.0880    -1.2000     2.2990 c3         1 MK1      -0.100767
     10 C7           6.1390     0.0160     0.1180 c3         1 MK1      -0.100767
     11 N3           1.5550     1.2290     2.1170 n3         1 MK1      -0.655600
     12 C8           0.0880     1.2280     2.1180 c3         1 MK1       0.125800
     13 C9          -0.4260     1.2290     0.6790 c3         1 MK1       0.124800
     14 C10          1.9780     1.1080     3.5180 c3         1 MK1       0.110800
     15 C11          1.8200     2.4590     4.2180 c3         1 MK1       0.150100
     16 O2           0.4330     2.7890     4.3050 oh         1 MK1      -0.613800
     17 C12          2.4140     2.3760     5.6260 c3         1 MK1      -0.075400
     18 C13          2.4160     3.7680     6.2600 c3         1 MK1      -0.133700
     19 C14          0.9760     4.2020     6.5420 c3         1 MK1      -0.033100
     20 C15          0.9780     5.5890     7.1330 ca         1 MK1      -0.092300
     21 C16          1.0280     6.6930     6.3050 ca         1 MK1      -0.122500
     22 C17          1.0280     7.9640     6.8460 ca         1 MK1      -0.128000
     23 C18          0.9770     8.1310     8.2170 ca         1 MK1      -0.133000
     24 C19          0.9260     7.0270     9.0460 ca         1 MK1      -0.128000
     25 C20          0.9200     5.7560     8.5040 ca         1 MK1      -0.122500
     26 C21          3.1920     3.7300     7.5510 c          1 MK1       0.662100
     27 O3           3.0870     2.7770     8.2950 o          1 MK1      -0.624100
     28 N4           4.0030     4.7550     7.8800 ns         1 MK1      -0.563900
     29 C22          4.8440     4.6690     9.0770 c3         1 MK1       0.173000
     30 C23          5.1410     6.0800     9.6250 c3         1 MK1       0.134100
     31 O4           5.0910     7.0520     8.5800 oh         1 MK1      -0.599800
     32 C24          6.5780     5.9280    10.1690 c3         1 MK1      -0.065100
     33 C25          7.1920     4.8080     9.3560 ca         1 MK1      -0.086300
     34 C26          8.5180     4.4510     9.1790 ca         1 MK1      -0.117000
     35 C27          8.8480     3.3760     8.3780 ca         1 MK1      -0.124000
     36 C28          7.8510     2.6520     7.7510 ca         1 MK1      -0.131000
     37 C29          6.5280     3.0060     7.9260 ca         1 MK1      -0.092000
     38 C30          6.1950     4.0830     8.7290 ca         1 MK1      -0.107300
     39 C31         -0.4220     0.1210    -1.4010 c3         1 MK1       0.186100
     40 C32         -1.9280     0.1260    -1.4730 ca         1 MK1      -0.208600
     41 C33         -2.6250    -1.0580    -1.6170 ca         1 MK1       0.438200
     42 N5          -3.9430    -1.0620    -1.6760 nb         1 MK1      -0.689000
     43 C34         -4.6430     0.0530    -1.6120 ca         1 MK1       0.421200
     44 C35         -4.0140     1.2760    -1.4740 ca         1 MK1      -0.255300
     45 C36         -2.6300     1.3200    -1.4030 ca         1 MK1      -0.093000
     46 H11A         1.8260     0.8860    -0.5100 h1         1 MK1       0.047700
     47 H12          1.8260    -0.8860    -0.5100 h1         1 MK1       0.047700
     48 H2           1.5770    -0.8570     1.9640 h1         1 MK1       0.058700
     49 HN2          3.5710    -1.8720     0.4730 hn         1 MK1       0.313500
     50 H51          5.6600    -2.4730    -0.8670 hc         1 MK1       0.045367
     51 H52          5.6080    -3.3380     0.6750 hc         1 MK1       0.045367
     52 H53          7.0990    -2.5370     0.1590 hc         1 MK1       0.045367
     53 H61          6.1520    -0.1810     2.6620 hc         1 MK1       0.045367
     54 H62          7.0700    -1.6560     2.3300 hc         1 MK1       0.045367
     55 H63          5.4070    -1.7640     2.9250 hc         1 MK1       0.045367
     56 H71          7.1700    -0.1750    -0.1520 hc         1 MK1       0.045367
     57 H72          5.5580     0.1950    -0.7790 hc         1 MK1       0.045367
     58 H73          6.0890     0.8870     0.7590 hc         1 MK1       0.045367
     59 H81         -0.2700     0.3410     2.6270 h1         1 MK1       0.061700
     60 H82         -0.2720     2.1130     2.6280 h1         1 MK1       0.061700
     61 H91         -1.5090     1.2780     0.6840 h1         1 MK1       0.048200
     62 H92         -0.0240     2.0860     0.1540 h1         1 MK1       0.048200
     63 H101         1.3650     0.3680     4.0180 h1         1 MK1       0.062700
     64 H102         3.0160     0.8010     3.5570 h1         1 MK1       0.062700
     65 H11          2.3380     3.2220     3.6510 h1         1 MK1       0.052700
     66 HO2          0.2600     3.5590     3.7890 ho         1 MK1       0.404000
     67 H121         1.8170     1.7040     6.2310 hc         1 MK1       0.068200
     68 H122         3.4290     2.0030     5.5680 hc         1 MK1       0.068200
     69 H13          2.8800     4.4730     5.5800 hc         1 MK1       0.055700
     70 H141         0.5210     3.5120     7.2420 hc         1 MK1       0.071700
     71 H142         0.4110     4.2040     5.6180 hc         1 MK1       0.071700
     72 H16          1.0680     6.5630     5.2300 ha         1 MK1       0.132500
     73 H17          1.0680     8.8300     6.1960 ha         1 MK1       0.127500
     74 H18          0.9790     9.1280     8.6420 ha         1 MK1       0.126000
     75 H19          0.8830     7.1590    10.1210 ha         1 MK1       0.127500
     76 H20          0.8800     4.8900     9.1540 ha         1 MK1       0.132500
     77 HN4          4.0720     5.5510     7.2770 hn         1 MK1       0.338500
     78 H22          4.3620     4.0670     9.8380 h1         1 MK1       0.098700
     79 H23          4.4550     6.3310    10.4260 h1         1 MK1       0.047700
     80 HO4          4.9980     7.9120     8.9550 ho         1 MK1       0.408000
     81 H241         7.1290     6.8450     9.9990 hc         1 MK1       0.062200
     82 H242         6.5430     5.6430    11.2130 hc         1 MK1       0.062200
     83 H26          9.3000     5.0180     9.6700 ha         1 MK1       0.126000
     84 H27          9.8870     3.0990     8.2420 ha         1 MK1       0.129000
     85 H28          8.1080     1.8080     7.1230 ha         1 MK1       0.131000
     86 H29          5.7470     2.4380     7.4340 ha         1 MK1       0.139000
     87 H311        -0.0370    -0.7170    -1.9680 h1         1 MK1       0.045200
     88 H312        -0.0380     1.0450    -1.8160 h1         1 MK1       0.045200
     89 H33         -2.0830    -1.9950    -1.6730 h4         1 MK1       0.027100
     90 H34         -5.7240     0.0100    -1.6660 h4         1 MK1       0.023100
     91 H35         -4.5950     2.1890    -1.4230 ha         1 MK1       0.138000
     92 H36         -2.1100     2.2640    -1.2950 ha         1 MK1       0.137000
@<TRIPOS>BOND
     1     1     2 1
     2     1    13 1
     3     1    39 1
     4     2     3 1
     5     2    46 1
     6     2    47 1
     7     3     4 1
     8     3    11 1
     9     3    48 1
    10     4     5 2
    11     4     6 1
    12     6     7 1
    13     6    49 1
    14     7     8 1
    15     7     9 1
    16     7    10 1
    17     8    50 1
    18     8    51 1
    19     8    52 1
    20     9    53 1
    21     9    54 1
    22     9    55 1
    23    10    56 1
    24    10    57 1
    25    10    58 1
    26    11    12 1
    27    11    14 1
    28    12    13 1
    29    12    59 1
    30    12    60 1
    31    13    61 1
    32    13    62 1
    33    14    15 1
    34    14    63 1
    35    14    64 1
    36    15    16 1
    37    15    17 1
    38    15    65 1
    39    16    66 1
    40    17    18 1
    41    17    67 1
    42    17    68 1
    43    18    19 1
    44    18    26 1
    45    18    69 1
    46    19    20 1
    47    19    70 1
    48    19    71 1
    49    20    21 ar
    50    20    25 ar
    51    21    22 ar
    52    21    72 1
    53    22    23 ar
    54    22    73 1
    55    23    24 ar
    56    23    74 1
    57    24    25 ar
    58    24    75 1
    59    25    76 1
    60    26    27 2
    61    26    28 1
    62    28    29 1
    63    28    77 1
    64    29    30 1
    65    29    38 1
    66    29    78 1
    67    30    31 1
    68    30    32 1
    69    30    79 1
    70    31    80 1
    71    32    33 1
    72    32    81 1
    73    32    82 1
    74    33    34 ar
    75    33    38 ar
    76    34    35 ar
    77    34    83 1
    78    35    36 ar
    79    35    84 1
    80    36    37 ar
    81    36    85 1
    82    37    38 ar
    83    37    86 1
    84    39    40 1
    85    39    87 1
    86    39    88 1
    87    40    41 ar
    88    40    45 ar
    89    41    42 ar
    90    41    89 1
    91    42    43 ar
    92    43    44 ar
    93    43    90 1
    94    44    45 ar
    95    44    91 1
    96    45    92 1
@<TRIPOS>SUBSTRUCTURE
     1 MK1         1 TEMP              0 ****  ****    0 ROOT
