@<TRIPOS>MOLECULE
MK2
   40    42     1     0     0
SMALL
bcc


@<TRIPOS>ATOM
      1 C1          0.4170   -1.8390   -1.0430 c2        1 MK2     -0.219000
      2 C2          3.5420   -3.4470    1.8340 c1        1 MK2      0.248000
      3 C3         -0.2020   -1.4520    0.0750 c2        1 MK2     -0.095000
      4 C4          2.3760   -3.0250    1.3780 c2        1 MK2     -0.427000
      5 C5          0.0980    4.2110   10.5050 c2        1 MK2     -0.343000
      6 C6         -0.3690    5.3520   11.2020 c1        1 MK2     -0.068000
      7 C7         -0.0640   -0.4550    2.4150 c2        1 MK2     -0.176000
      8 C8          0.4320    1.5070    6.5040 c2        1 MK2     -0.189000
      9 C9          0.1910    1.1990    5.0950 c2        1 MK2     -0.084000
     10 C10         3.9250   -2.1100    7.7670 c1        1 MK2      0.112000
     11 C11         0.4090   -1.3400    1.3700 c2        1 MK2     -0.097000
     12 C12         1.5100   -2.0110    1.8920 c2        1 MK2      0.059000
     13 C13        -0.2380    4.0410    9.1470 c2        1 MK2      0.185000
     14 C14        -0.0220    2.6260    7.1370 c2        1 MK2      0.108000
     15 C15         1.2260    0.4020    7.0410 c2        1 MK2     -0.157000
     16 C16         0.7980   -0.0030    4.7910 c2        1 MK2     -0.067000
     17 C17         0.7710   -0.6250    3.5070 c2        1 MK2      0.039000
     18 C18         1.4450   -0.5100    6.0250 c2        1 MK2     -0.027000
     19 C19        -1.4340    6.0650    9.1540 c2        1 MK2      0.176000
     20 N20        -2.1260    7.0680    8.4610 n3        1 MK2     -0.338000
     21 N21         2.0370   -1.8020    6.1320 nh        1 MK2     -0.042000
     22 N22        -1.1210    6.2470   10.5250 n3        1 MK2     -0.188000
     23 N23         3.0830   -1.9120    6.9550 n2        1 MK2     -0.280000
     24 N24        -1.0230    4.9650    8.4670 n2        1 MK2     -0.286000
     25 O26         1.7550   -1.5830    3.2070 os        1 MK2     -0.125000
     26 H1         -1.2720   -1.1720    0.0530 ha        1 MK2      0.129000
     27 H2         -0.1120   -1.9040   -2.0030 ha        1 MK2      0.115000
     28 H3          1.4840   -2.0950   -1.0810 ha        1 MK2      0.115000
     29 H4          1.9900   -3.5210    0.4550 ha        1 MK2      0.210000
     30 H6         -1.4290    7.0670   10.9990 hn        1 MK2      0.260000
     31 H7         -0.9190    0.2090    2.3380 ha        1 MK2      0.164000
     32 H8         -0.6220    3.3690    6.5690 h4        1 MK2      0.176000
     33 H9         -0.3730    1.8390    4.4180 ha        1 MK2      0.146000
     34 H10         1.5690    0.3320    8.0700 ha        1 MK2      0.145000
     35 HN20       -2.4100    6.8470    7.5320 hn        1 MK2      0.222500
     36 HN2A       -2.7760    7.6050    8.9880 hn        1 MK2      0.222500
     37 HN21        2.3220   -2.1250    5.2060 hn        1 MK2      0.202000
     38 N25         0.2170    2.9070    8.4580 n3        1 MK2     -0.246000
     39 H5          0.7140    3.4910   11.0580 ha        1 MK2      0.166000
     40 HN25        0.7610    2.2650    8.9960 hn        1 MK2      0.255000
@<TRIPOS>BOND
     1    1    3 1   
     2    1   27 1   
     3    1   28 1   
     4    2    4 1   
     5    3   11 1   
     6    3   26 1   
     7    4   12 1   
     8    4   29 1   
     9    5    6 1   
    10    5   13 1   
    11    5   39 1   
    12    6   22 1   
    13    7   11 1   
    14    7   17 1   
    15    7   31 1   
    16    8    9 1   
    17    8   14 1   
    18    8   15 1   
    19    9   16 1   
    20    9   33 1   
    21   10   23 1   
    22   11   12 1   
    23   12   25 1   
    24   13   24 1   
    25   13   38 1   
    26   14   32 1   
    27   14   38 1   
    28   15   18 1   
    29   15   34 1   
    30   16   17 1   
    31   16   18 1   
    32   17   25 1   
    33   18   21 1   
    34   19   20 1   
    35   19   22 1   
    36   19   24 1   
    37   20   35 1   
    38   20   36 1   
    39   21   23 1   
    40   21   37 1   
    41   22   30 1   
    42   38   40 1   
@<TRIPOS>SUBSTRUCTURE
     1 MK2         1 TEMP              0 ****  ****    0 ROOT
