@<TRIPOS>MOLECULE
molecule
   43    46     1     0     0
SMALL
bcc


@<TRIPOS>ATOM
      1 C1           0.0000     0.0000     0.0000 ca         1 MK3       0.975900
      2 N1           1.3240     0.0000     0.0000 nb         1 MK3      -0.851000
      3 O1           6.1660    -0.4660    -3.6250 oh         1 MK3      -0.510100
      4 S1           2.8550    -1.6480    -7.4280 ss         1 MK3      -0.019500
      5 C2          -0.0860    -0.0010     2.3040 ca         1 MK3       0.524200
      6 N2          -0.6950    -0.0000     1.1280 nb         1 MK3      -0.826000
      7 O2           1.2430    -4.8020    -9.2010 o          1 MK3      -0.572100
      8 C3           1.2950    -0.0010     2.3500 ca         1 MK3      -0.494600
      9 N3          -0.6740     0.0070    -1.2090 nv         1 MK3      -0.998500
     10 C4           2.0010     0.0000     1.1450 ca         1 MK3       0.753200
     11 N4           3.3870    -0.0010     1.1420 nu         1 MK3      -0.769300
     12 C5           4.0860    -0.1220    -0.0670 ca         1 MK3       0.139600
     13 N5           1.7840    -2.8580   -10.1340 ne         1 MK3      -0.696100
     14 C6           3.5560    -0.8810    -1.0970 ca         1 MK3      -0.093000
     15 C7           4.2520    -1.0010    -2.2990 cp         1 MK3      -0.047000
     16 C8           5.4810    -0.3530    -2.4550 ca         1 MK3       0.106100
     17 C9           6.0010     0.4040    -1.4180 ca         1 MK3      -0.167000
     18 C10          5.3050     0.5240    -0.2310 ca         1 MK3      -0.140000
     19 C11          3.6910    -1.8110    -3.4060 cp         1 MK3      -0.009000
     20 C12          3.2420    -3.1160    -3.1620 ca         1 MK3      -0.125000
     21 C13          2.7280    -3.8660    -4.1680 ca         1 MK3      -0.085000
     22 C14          3.6100    -1.2790    -4.6840 ca         1 MK3      -0.071000
     23 C15          3.0840    -2.0410    -5.7280 ca         1 MK3      -0.018100
     24 C16          2.6350    -3.3470    -5.4840 ca         1 MK3      -0.100800
     25 C17          2.1380    -3.9690    -6.6380 cc         1 MK3      -0.060200
     26 C18          2.1730    -3.2300    -7.7540 cd         1 MK3      -0.109600
     27 C19          1.7040    -3.6830    -9.0710 c          1 MK3       0.734700
     28 C20          1.3700    -3.2580   -11.2960 c2         1 MK3       0.547100
     29 HO1          7.0380    -0.7790    -3.4500 ho         1 MK3       0.419000
     30 H2          -0.6640    -0.0010     3.2210 h4         1 MK3       0.028100
     31 H3           1.8180    -0.0010     3.2990 ha         1 MK3       0.140000
     32 HN3         -0.2500     0.4210    -2.0150 hn         1 MK3       0.450800
     33 HN3A        -1.6000    -0.3690    -1.2670 hn         1 MK3       0.450800
     34 HN4          3.8890     0.0550     2.0060 hn         1 MK3       0.458800
     35 H6           2.6030    -1.3810    -0.9700 ha         1 MK3       0.172000
     36 H9           6.9510     0.9090    -1.5410 ha         1 MK3       0.138000
     37 H10          5.7160     1.1170     0.5780 ha         1 MK3       0.133000
     38 H12          3.3090    -3.5290    -2.1630 ha         1 MK3       0.136000
     39 H13          2.3850    -4.8730    -3.9630 ha         1 MK3       0.134000
     40 H14          3.9420    -0.2650    -4.8690 ha         1 MK3       0.151000
     41 H17          1.7510    -4.9810    -6.6270 ha         1 MK3       0.164000
     42 H20          1.4340    -2.5960   -12.1510 h4         1 MK3       0.002300
     43 H20A         0.9600    -4.2540   -11.4110 h4         1 MK3       0.002300
@<TRIPOS>BOND
     1     9     1 1
     2     1     2 ar
     3     1     6 ar
     4     2    10 ar
     5     3    16 1
     6     3    29 1
     7    26     4 1
     8    23     4 1
     9     6     5 ar
    10     5     8 ar
    11     5    30 1
    12     7    27 2
    13    10     8 ar
    14     8    31 1
    15     9    32 1
    16     9    33 1
    17    10    11 1
    18    12    11 1
    19    11    34 1
    20    14    12 ar
    21    18    12 ar
    22    27    13 1
    23    13    28 2
    24    15    14 ar
    25    14    35 1
    26    19    15 1
    27    16    15 ar
    28    16    17 ar
    29    17    18 ar
    30    17    36 1
    31    18    37 1
    32    20    19 ar
    33    19    22 ar
    34    21    20 ar
    35    20    38 1
    36    21    24 ar
    37    21    39 1
    38    23    22 ar
    39    22    40 1
    40    24    23 ar
    41    25    24 1
    42    25    26 2
    43    25    41 1
    44    27    26 1
    45    28    42 1
    46    28    43 1
@<TRIPOS>SUBSTRUCTURE
     1 MK3         1 TEMP              0 ****  ****    0 ROOT
