@<TRIPOS>MOLECULE
molecule
   35    36     1     0     0
SMALL
bcc


@<TRIPOS>ATOM
      1 O24          0.0000     0.0000     0.0000 o          1 MK4      -0.817800
      2 C23          1.3430     0.0000     0.0000 c          1 MK4       0.893600
      3 O25          1.9460     0.0000     1.0470 o          1 MK4      -0.817800
      4 C22          2.0960     0.0010    -1.3040 c3         1 MK4       0.007400
      5 O21          3.5020     0.0010    -1.0430 os         1 MK4      -0.233900
      6 C20          4.3290     0.0010    -2.1190 ca         1 MK4       0.227100
      7 C19          3.8020     0.0070    -3.4010 ca         1 MK4      -0.238000
      8 C17          4.6470     0.0130    -4.4960 ca         1 MK4       0.090400
      9 Cl           3.9800     0.0210    -6.0990 cl         1 MK4      -0.133400
     10 C16          6.0210     0.0150    -4.3200 ca         1 MK4      -0.206000
     11 C15          6.5600     0.0090    -3.0520 ca         1 MK4      -0.067000
     12 C14          5.7190     0.0020    -1.9380 ca         1 MK4      -0.197600
     13 C12          6.2890     0.0020    -0.5780 c          1 MK4       0.665700
     14 O13          5.5530     0.0020     0.3900 o          1 MK4      -0.533100
     15 N11          7.6260     0.0020    -0.4080 ns         1 MK4      -0.597900
     16 C10          8.1940     0.0020     0.9430 c3         1 MK4       0.145300
     17 C09          9.6980     0.0020     0.8550 ca         1 MK4      -0.043300
     18 C02         10.3890    -1.1950     0.8100 ca         1 MK4      -0.012900
     19 Br1          9.4450    -2.8330     0.8560 br         1 MK4      -0.053600
     20 C03         11.7690    -1.1950     0.7300 ca         1 MK4      -0.076000
     21 C04         12.4590     0.0030     0.6960 ca         1 MK4      -0.021900
     22 Br5         14.3470     0.0040     0.5870 br         1 MK4      -0.089100
     23 C06         11.7700     1.2010     0.7410 ca         1 MK4      -0.076000
     24 C07         10.3870     1.2010     0.8160 ca         1 MK4      -0.012900
     25 Br8          9.4440     2.8380     0.8710 br         1 MK4      -0.053600
     26 H2           1.8350    -0.8830    -1.8730 h1         1 MK4       0.028700
     27 H3           1.8340     0.8860    -1.8720 h1         1 MK4       0.028700
     28 H4           2.7280    -0.0020    -3.5450 ha         1 MK4       0.166000
     29 H5           6.6750     0.0200    -5.1840 ha         1 MK4       0.130000
     30 H6           7.6350     0.0100    -2.9200 ha         1 MK4       0.120000
     31 H7           8.2310     0.0020    -1.2050 hn         1 MK4       0.306500
     32 H8           7.8630     0.8860     1.4730 h1         1 MK4       0.078700
     33 H9           7.8630    -0.8830     1.4730 h1         1 MK4       0.078700
     34 H10         12.3100    -2.1330     0.6950 ha         1 MK4       0.157000
     35 H11         12.3110     2.1390     0.7120 ha         1 MK4       0.157000
@<TRIPOS>BOND
     1     9     8 1
     2     3     2 1
     3     8    10 ar
     4     8     7 ar
     5    10    11 ar
     6     1     2 1
     7     7     6 ar
     8     2     4 1
     9    11    12 ar
    10     6    12 ar
    11     6     5 1
    12     4     5 1
    13    12    13 1
    14    15    13 1
    15    15    16 1
    16    13    14 2
    17    16    17 1
    18    25    24 1
    19    17    24 ar
    20    17    18 ar
    21    19    18 1
    22    24    23 ar
    23    18    20 ar
    24    23    21 ar
    25    20    21 ar
    26    21    22 1
    27     4    26 1
    28     4    27 1
    29     7    28 1
    30    10    29 1
    31    11    30 1
    32    15    31 1
    33    16    32 1
    34    16    33 1
    35    20    34 1
    36    23    35 1
@<TRIPOS>SUBSTRUCTURE
     1 MK4         1 TEMP              0 ****  ****    0 ROOT
