@<TRIPOS>MOLECULE
MK4
   35    36     1     0     0
SMALL
bcc


@<TRIPOS>ATOM
      1 O24          0.0000     0.0000     0.0000 o          1 MK4      -0.874800
      2 C23          1.3430     0.0000     0.0000 c          1 MK4       0.971600
      3 O25          1.9460     0.0000     1.0470 o          1 MK4      -0.874800
      4 C22          2.0960     0.0010    -1.3040 c3         1 MK4       0.068400
      5 O21          3.5020     0.0010    -1.0430 os         1 MK4      -0.202900
      6 C20          4.3290     0.0010    -2.1190 ca         1 MK4       0.242100
      7 C19          3.8020     0.0070    -3.4010 ca         1 MK4      -0.238000
      8 C17          4.6470     0.0130    -4.4960 ca         1 MK4       0.040400
      9 Cl           3.9800     0.0210    -6.0990 cl         1 MK4      -0.062400
     10 C16          6.0210     0.0150    -4.3200 ca         1 MK4      -0.193000
     11 C15          6.5600     0.0090    -3.0520 ca         1 MK4      -0.042000
     12 C14          5.7190     0.0020    -1.9380 ca         1 MK4      -0.215600
     13 C12          6.2890     0.0020    -0.5780 c          1 MK4       0.587700
     14 O13          5.5530     0.0020     0.3900 o          1 MK4      -0.572100
     15 N11          7.6260     0.0020    -0.4080 ns         1 MK4      -0.228900
     16 C10          8.1940     0.0020     0.9430 c3         1 MK4       0.094300
     17 C09          9.6980     0.0020     0.8550 ca         1 MK4      -0.057300
     18 C02         10.3890    -1.1950     0.8100 ca         1 MK4       0.036600
     19 Br1          9.4450    -2.8330     0.8560 br         1 MK4      -0.082600
     20 C03         11.7690    -1.1950     0.7300 ca         1 MK4      -0.065500
     21 C04         12.4590     0.0030     0.6960 ca         1 MK4       0.036100
     22 Br5         14.3470     0.0040     0.5870 br         1 MK4      -0.127100
     23 C06         11.7700     1.2010     0.7410 ca         1 MK4      -0.065500
     24 C07         10.3870     1.2010     0.8160 ca         1 MK4       0.036600
     25 Br8          9.4440     2.8380     0.8710 br         1 MK4      -0.082600
     26 H2           1.8350    -0.8830    -1.8730 h1         1 MK4      -0.003300
     27 H3           1.8340     0.8860    -1.8720 h1         1 MK4      -0.003300
     28 H4           2.7280    -0.0020    -3.5450 ha         1 MK4       0.150000
     29 H5           6.6750     0.0200    -5.1840 ha         1 MK4       0.107000
     30 H6           7.6350     0.0100    -2.9200 ha         1 MK4       0.094000
     31 H7           8.2310     0.0020    -1.2050 hn         1 MK4       0.175500
     32 H8           7.8630     0.8860     1.4730 h1         1 MK4       0.045700
     33 H9           7.8630    -0.8830     1.4730 h1         1 MK4       0.045700
     34 H10         12.3100    -2.1330     0.6950 ha         1 MK4       0.128000
     35 H11         12.3110     2.1390     0.7120 ha         1 MK4       0.128000
@<TRIPOS>BOND
     1     1     2 1   
     2     2     3 1   
     3     2     4 1   
     4     4     5 1   
     5     4    26 1   
     6     4    27 1   
     7     5     6 1   
     8     6     7 ar  
     9     6    12 ar  
    10     7     8 ar  
    11     7    28 1   
    12     8     9 1   
    13     8    10 ar  
    14    10    11 ar  
    15    10    29 1   
    16    11    12 ar  
    17    11    30 1   
    18    12    13 1   
    19    13    14 2   
    20    13    15 1   
    21    15    16 1   
    22    15    31 1   
    23    16    17 1   
    24    16    32 1   
    25    16    33 1   
    26    17    18 ar  
    27    17    24 ar  
    28    18    19 1   
    29    18    20 ar  
    30    20    21 ar  
    31    20    34 1   
    32    21    22 1   
    33    21    23 ar  
    34    23    24 ar  
    35    23    35 1   
    36    24    25 1   
@<TRIPOS>SUBSTRUCTURE
     1 MK4         1 TEMP              0 ****  ****    0 ROOT
