@<TRIPOS>MOLECULE
molecule
   77    78     1     0     0
SMALL
bcc


@<TRIPOS>ATOM
      1 C1           0.0000     0.0000     0.0000 c3         1 MK5       0.125700
      2 O1           1.4290     0.0000     0.0000 os         1 MK5      -0.322900
      3 C2           2.0460     0.0000     1.2110 ca         1 MK5       0.194100
      4 C7           3.4320     0.0000     1.2840 ca         1 MK5      -0.213000
      5 C6           4.0560     0.0000     2.5160 ca         1 MK5       0.007500
      6 C3           1.2920     0.0070     2.3740 ca         1 MK5      -0.213000
      7 C4           1.9220     0.0070     3.6040 ca         1 MK5       0.007500
      8 C5           3.3030     0.0010     3.6750 ca         1 MK5      -0.355500
      9 S8           4.1020     0.0020     5.2450 sy         1 MK5       1.425200
     10 O9           5.4010     0.5400     5.0340 o          1 MK5      -0.640300
     11 O10          3.1740     0.5530     6.1680 o          1 MK5      -0.640300
     12 N11          4.3190    -1.5800     5.6860 n3         1 MK5      -0.812500
     13 C12          3.2840    -2.2730     6.4580 c3         1 MK5       0.225800
     14 C13          2.3410    -3.0060     5.5020 c3         1 MK5      -0.099700
     15 C14          3.1210    -4.0790     4.7390 c3         1 MK5      -0.090100
     16 C15          1.2150    -3.6670     6.3020 c3         1 MK5      -0.079400
     17 C18          0.2060    -4.2940     5.3390 c3         1 MK5      -0.091100
     18 C16          5.5440    -2.2860     5.3050 c3         1 MK5       0.230800
     19 C17          6.5630    -2.1900     6.4430 c3         1 MK5       0.110100
     20 O18          6.0660    -2.8850     7.5870 oh         1 MK5      -0.606800
     21 C19          7.8850    -2.8190     5.9980 c3         1 MK5       0.126700
     22 C32          7.6830    -4.3160     5.7610 c3         1 MK5      -0.051100
     23 C38          8.9510    -4.9130     5.2060 ca         1 MK5      -0.068300
     24 C33          9.9130    -5.4130     6.0640 ca         1 MK5      -0.118000
     25 C34         11.0760    -5.9590     5.5540 ca         1 MK5      -0.121000
     26 C35         11.2770    -6.0050     4.1880 ca         1 MK5      -0.125000
     27 C36         10.3150    -5.5050     3.3300 ca         1 MK5      -0.121000
     28 C37          9.1500    -4.9640     3.8390 ca         1 MK5      -0.118000
     29 N20          8.8940    -2.6200     7.0400 ns         1 MK5      -0.567900
     30 C21         10.2040    -2.6150     6.7180 c          1 MK5       0.748100
     31 O22         10.5460    -2.7730     5.5630 o          1 MK5      -0.594000
     32 O23         11.1320    -2.4330     7.6760 os         1 MK5      -0.449900
     33 C23         12.5220    -2.4380     7.2570 c3         1 MK5       0.148400
     34 C24         13.4230    -2.2180     8.4740 c3         1 MK5       0.113000
     35 N25         13.2900    -3.3530     9.3910 ns         1 MK5      -0.574900
     36 C26         13.9960    -3.3780    10.5390 c          1 MK5       0.646100
     37 O27         14.7400    -2.4610    10.8130 o          1 MK5      -0.565100
     38 C28         13.8590    -4.5460    11.4820 c3         1 MK5       0.084100
     39 Cl2         14.2070    -6.0780    10.5960 cl         1 MK5      -0.130400
     40 Cl1         15.0280    -4.3600    12.8420 cl         1 MK5      -0.130400
     41 H1          -0.3610     0.0070    -1.0210 h1         1 MK5       0.046033
     42 H2          -0.3610    -0.8880     0.5050 h1         1 MK5       0.046033
     43 H3          -0.3610     0.8810     0.5170 h1         1 MK5       0.046033
     44 H4           4.0240    -0.0010     0.3760 ha         1 MK5       0.146500
     45 H5           5.1380    -0.0020     2.5740 ha         1 MK5       0.151500
     46 H6           0.2100     0.0110     2.3190 ha         1 MK5       0.146500
     47 H7           1.3330     0.0100     4.5140 ha         1 MK5       0.151500
     48 H8           3.7490    -2.9890     7.1250 h1         1 MK5       0.073700
     49 H9           2.7210    -1.5520     7.0380 h1         1 MK5       0.073700
     50 H10          1.9170    -2.2990     4.7990 hc         1 MK5       0.050700
     51 H11          3.6100    -3.6300     3.8830 hc         1 MK5       0.037367
     52 H12          2.4390    -4.8500     4.4010 hc         1 MK5       0.037367
     53 H13          3.8660    -4.5170     5.3920 hc         1 MK5       0.037367
     54 H14          1.6310    -4.4360     6.9420 hc         1 MK5       0.044700
     55 H15          0.7180    -2.9210     6.9110 hc         1 MK5       0.044700
     56 H16         -0.7850    -4.2490     5.7750 hc         1 MK5       0.034700
     57 H17          0.2140    -3.7500     4.4030 hc         1 MK5       0.034700
     58 H18          0.4740    -5.3280     5.1580 hc         1 MK5       0.034700
     59 H19          5.3150    -3.3270     5.1130 h1         1 MK5       0.069200
     60 H20          5.9570    -1.8360     4.4110 h1         1 MK5       0.069200
     61 H21          6.7250    -1.1490     6.6950 h1         1 MK5       0.062700
     62 H22          6.1290    -2.3280     8.3460 ho         1 MK5       0.406000
     63 H23          8.2170    -2.3500     5.0800 h1         1 MK5       0.092700
     64 H24          7.4380    -4.8000     6.6990 hc         1 MK5       0.060200
     65 H25          6.8750    -4.4650     5.0560 hc         1 MK5       0.060200
     66 H26          9.7550    -5.3770     7.1350 ha         1 MK5       0.122000
     67 H27         11.8290    -6.3510     6.2260 ha         1 MK5       0.124000
     68 H28         12.1900    -6.4320     3.7890 ha         1 MK5       0.126000
     69 H29         10.4730    -5.5440     2.2590 ha         1 MK5       0.124000
     70 H30          8.3970    -4.5720     3.1660 ha         1 MK5       0.122000
     71 H31          8.6130    -2.5040     7.9940 hn         1 MK5       0.320500
     72 H32         12.6850    -1.6430     6.5390 h1         1 MK5       0.064700
     73 H33         12.7590    -3.3910     6.8000 h1         1 MK5       0.064700
     74 H34         13.1290    -1.3080     8.9810 h1         1 MK5       0.071200
     75 H35         14.4530    -2.1340     8.1500 h1         1 MK5       0.071200
     76 H36         12.7030    -4.1260     9.1470 hn         1 MK5       0.326500
     77 H37         12.8500    -4.5770    11.8740 h2         1 MK5       0.109700
@<TRIPOS>BOND
     1    39    38 1
     2    38    36 1
     3    38    40 1
     4    26    27 ar
     5    26    25 ar
     6    35    36 1
     7    35    34 1
     8    36    37 2
     9    27    28 ar
    10    34    33 1
    11    25    24 ar
    12    33    32 1
    13    28    23 ar
    14    24    23 ar
    15    32    30 1
    16    31    30 2
    17    23    22 1
    18    30    29 1
    19    10     9 2
    20    29    21 1
    21    22    21 1
    22    11     9 2
    23    17    16 1
    24    21    19 1
    25     9    12 1
    26     9     8 1
    27    16    14 1
    28    12    18 1
    29    12    13 1
    30    19    18 1
    31    19    20 1
    32     8     7 ar
    33     8     5 ar
    34     7     6 ar
    35    14    13 1
    36    14    15 1
    37     5     4 ar
    38     6     3 ar
    39     4     3 ar
    40     3     2 1
    41     2     1 1
    42     1    41 1
    43     1    42 1
    44     1    43 1
    45     4    44 1
    46     5    45 1
    47     6    46 1
    48     7    47 1
    49    13    48 1
    50    13    49 1
    51    14    50 1
    52    15    51 1
    53    15    52 1
    54    15    53 1
    55    16    54 1
    56    16    55 1
    57    17    56 1
    58    17    57 1
    59    17    58 1
    60    18    59 1
    61    18    60 1
    62    19    61 1
    63    20    62 1
    64    21    63 1
    65    22    64 1
    66    22    65 1
    67    24    66 1
    68    25    67 1
    69    26    68 1
    70    27    69 1
    71    28    70 1
    72    29    71 1
    73    33    72 1
    74    33    73 1
    75    34    74 1
    76    34    75 1
    77    35    76 1
    78    38    77 1
@<TRIPOS>SUBSTRUCTURE
     1 MK5         1 TEMP              0 ****  ****    0 ROOT
