@<TRIPOS>MOLECULE
MK5
   77    78     1     0     0
SMALL
bcc


@<TRIPOS>ATOM
      1 C1           0.0000     0.0000     0.0000 c3         1 MK5       0.244700
      2 O1           1.4290     0.0000     0.0000 os         1 MK5      -0.304900
      3 C2           2.0460     0.0000     1.2110 ca         1 MK5       0.203100
      4 C7           3.4320     0.0000     1.2840 ca         1 MK5      -0.208500
      5 C6           4.0560     0.0000     2.5160 ca         1 MK5       0.046000
      6 C3           1.2920     0.0070     2.3740 ca         1 MK5      -0.208500
      7 C4           1.9220     0.0070     3.6040 ca         1 MK5       0.046000
      8 C5           3.3030     0.0010     3.6750 ca         1 MK5      -0.204500
      9 S8           4.1020     0.0020     5.2450 sy         1 MK5       1.051200
     10 O9           5.4010     0.5400     5.0340 o          1 MK5      -0.591800
     11 O10          3.1740     0.5530     6.1680 o          1 MK5      -0.591800
     12 N11          4.3190    -1.5800     5.6860 n3         1 MK5      -0.518500
     13 C12          3.2840    -2.2730     6.4580 c3         1 MK5       0.214800
     14 C13          2.3410    -3.0060     5.5020 c3         1 MK5      -0.086700
     15 C14          3.1210    -4.0790     4.7390 c3         1 MK5      -0.012100
     16 C15          1.2150    -3.6670     6.3020 c3         1 MK5      -0.020400
     17 C18          0.2060    -4.2940     5.3390 c3         1 MK5       0.001900
     18 C16          5.5440    -2.2860     5.3050 c3         1 MK5       0.205800
     19 C17          6.5630    -2.1900     6.4430 c3         1 MK5       0.151100
     20 O18          6.0660    -2.8850     7.5870 oh         1 MK5      -0.588800
     21 C19          7.8850    -2.8190     5.9980 c3         1 MK5       0.013700
     22 C32          7.6830    -4.3160     5.7610 c3         1 MK5       0.006900
     23 C38          8.9510    -4.9130     5.2060 ca         1 MK5      -0.076300
     24 C33          9.9130    -5.4130     6.0640 ca         1 MK5      -0.093500
     25 C34         11.0760    -5.9590     5.5540 ca         1 MK5      -0.091500
     26 C35         11.2770    -6.0050     4.1880 ca         1 MK5      -0.098000
     27 C36         10.3150    -5.5050     3.3300 ca         1 MK5      -0.091500
     28 C37          9.1500    -4.9640     3.8390 ca         1 MK5      -0.093500
     29 N20          8.8940    -2.6200     7.0400 ns         1 MK5      -0.163900
     30 C21         10.2040    -2.6150     6.7180 c          1 MK5       0.679100
     31 O22         10.5460    -2.7730     5.5630 o          1 MK5      -0.643000
     32 O23         11.1320    -2.4330     7.6760 os         1 MK5      -0.434900
     33 C23         12.5220    -2.4380     7.2570 c3         1 MK5       0.226400
     34 C24         13.4230    -2.2180     8.4740 c3         1 MK5       0.042000
     35 N25         13.2900    -3.3530     9.3910 ns         1 MK5      -0.181900
     36 C26         13.9960    -3.3780    10.5390 c          1 MK5       0.548100
     37 O27         14.7400    -2.4610    10.8130 o          1 MK5      -0.613100
     38 C28         13.8590    -4.5460    11.4820 c3         1 MK5       0.008100
     39 Cl2         14.2070    -6.0780    10.5960 cl         1 MK5      -0.058900
     40 Cl1         15.0280    -4.3600    12.8420 cl         1 MK5      -0.058900
     41 H1          -0.3610     0.0070    -1.0210 h1         1 MK5       0.000367
     42 H2          -0.3610    -0.8880     0.5050 h1         1 MK5       0.000367
     43 H3          -0.3610     0.8810     0.5170 h1         1 MK5       0.000367
     44 H4           4.0240    -0.0010     0.3760 ha         1 MK5       0.125500
     45 H5           5.1380    -0.0020     2.5740 ha         1 MK5       0.121500
     46 H6           0.2100     0.0110     2.3190 ha         1 MK5       0.125500
     47 H7           1.3330     0.0100     4.5140 ha         1 MK5       0.121500
     48 H8           3.7490    -2.9890     7.1250 h1         1 MK5       0.042700
     49 H9           2.7210    -1.5520     7.0380 h1         1 MK5       0.042700
     50 H10          1.9170    -2.2990     4.7990 hc         1 MK5       0.031700
     51 H11          3.6100    -3.6300     3.8830 hc         1 MK5       0.010033
     52 H12          2.4390    -4.8500     4.4010 hc         1 MK5       0.010033
     53 H13          3.8660    -4.5170     5.3920 hc         1 MK5       0.010033
     54 H14          1.6310    -4.4360     6.9420 hc         1 MK5       0.016200
     55 H15          0.7180    -2.9210     6.9110 hc         1 MK5       0.016200
     56 H16         -0.7850    -4.2490     5.7750 hc         1 MK5       0.002700
     57 H17          0.2140    -3.7500     4.4030 hc         1 MK5       0.002700
     58 H18          0.4740    -5.3280     5.1580 hc         1 MK5       0.002700
     59 H19          5.3150    -3.3270     5.1130 h1         1 MK5       0.041200
     60 H20          5.9570    -1.8360     4.4110 h1         1 MK5       0.041200
     61 H21          6.7250    -1.1490     6.6950 h1         1 MK5       0.031700
     62 H22          6.1290    -2.3280     8.3460 ho         1 MK5       0.394000
     63 H23          8.2170    -2.3500     5.0800 h1         1 MK5       0.070700
     64 H24          7.4380    -4.8000     6.6990 hc         1 MK5       0.031700
     65 H25          6.8750    -4.4650     5.0560 hc         1 MK5       0.031700
     66 H26          9.7550    -5.3770     7.1350 ha         1 MK5       0.097500
     67 H27         11.8290    -6.3510     6.2260 ha         1 MK5       0.097000
     68 H28         12.1900    -6.4320     3.7890 ha         1 MK5       0.099000
     69 H29         10.4730    -5.5440     2.2590 ha         1 MK5       0.097000
     70 H30          8.3970    -4.5720     3.1660 ha         1 MK5       0.097500
     71 H31          8.6130    -2.5040     7.9940 hn         1 MK5       0.172500
     72 H32         12.6850    -1.6430     6.5390 h1         1 MK5       0.023200
     73 H33         12.7590    -3.3910     6.8000 h1         1 MK5       0.023200
     74 H34         13.1290    -1.3080     8.9810 h1         1 MK5       0.038700
     75 H35         14.4530    -2.1340     8.1500 h1         1 MK5       0.038700
     76 H36         12.7030    -4.1260     9.1470 hn         1 MK5       0.182500
     77 H37         12.8500    -4.5770    11.8740 h2         1 MK5       0.055700
@<TRIPOS>BOND
     1     1     2 1   
     2     1    41 1   
     3     1    42 1   
     4     1    43 1   
     5     2     3 1   
     6     3     4 ar  
     7     3     6 ar  
     8     4     5 ar  
     9     4    44 1   
    10     5     8 ar  
    11     5    45 1   
    12     6     7 ar  
    13     6    46 1   
    14     7     8 ar  
    15     7    47 1   
    16     8     9 1   
    17     9    10 2   
    18     9    11 2   
    19     9    12 1   
    20    12    13 1   
    21    12    18 1   
    22    13    14 1   
    23    13    48 1   
    24    13    49 1   
    25    14    15 1   
    26    14    16 1   
    27    14    50 1   
    28    15    51 1   
    29    15    52 1   
    30    15    53 1   
    31    16    17 1   
    32    16    54 1   
    33    16    55 1   
    34    17    56 1   
    35    17    57 1   
    36    17    58 1   
    37    18    19 1   
    38    18    59 1   
    39    18    60 1   
    40    19    20 1   
    41    19    21 1   
    42    19    61 1   
    43    20    62 1   
    44    21    22 1   
    45    21    29 1   
    46    21    63 1   
    47    22    23 1   
    48    22    64 1   
    49    22    65 1   
    50    23    24 ar  
    51    23    28 ar  
    52    24    25 ar  
    53    24    66 1   
    54    25    26 ar  
    55    25    67 1   
    56    26    27 ar  
    57    26    68 1   
    58    27    28 ar  
    59    27    69 1   
    60    28    70 1   
    61    29    30 1   
    62    29    71 1   
    63    30    31 2   
    64    30    32 1   
    65    32    33 1   
    66    33    34 1   
    67    33    72 1   
    68    33    73 1   
    69    34    35 1   
    70    34    74 1   
    71    34    75 1   
    72    35    36 1   
    73    35    76 1   
    74    36    37 2   
    75    36    38 1   
    76    38    39 1   
    77    38    40 1   
    78    38    77 1   
@<TRIPOS>SUBSTRUCTURE
     1 MK5         1 TEMP              0 ****  ****    0 ROOT
