@<TRIPOS>MOLECULE
molecule
   67    71     1     0     0
SMALL
bcc


@<TRIPOS>ATOM
      1 O5           0.0000     0.0000     0.0000 o          1 MK6      -0.835800
      2 C28          1.2080     0.0000     0.0000 c          1 MK6       0.913600
      3 O4           1.8790     0.0000     1.1620 o          1 MK6      -0.835800
      4 C27          1.9620    -0.0080    -1.3060 cx         1 MK6      -0.123700
      5 C2           1.1390    -0.0200    -2.5960 cx         1 MK6      -0.156700
      6 C1           1.8870     1.2510    -2.1700 cx         1 MK6      -0.110400
      7 C            2.9610     1.4970    -3.1990 ca         1 MK6      -0.182600
      8 C7           3.9130     2.4990    -3.2850 ca         1 MK6       0.458200
      9 N            4.7740     2.5330    -4.2830 nb         1 MK6      -0.784000
     10 C6           4.7660     1.6180    -5.2380 ca         1 MK6       0.625600
     11 C5           3.8400     0.5850    -5.2160 ca         1 MK6      -0.261300
     12 C4           2.9220     0.5220    -4.1790 ca         1 MK6      -0.039300
     13 C3           1.8130    -0.4960    -3.8910 c3         1 MK6      -0.004100
     14 O            5.6710     1.6910    -6.2470 os         1 MK6      -0.449100
     15 C8           6.5960     2.7800    -6.2120 c3         1 MK6       0.196700
     16 C9           7.5150     2.6960    -7.4030 ca         1 MK6      -0.088300
     17 C26          8.6970     1.9830    -7.3150 ca         1 MK6      -0.104000
     18 C25          9.5450     1.9030    -8.4050 ca         1 MK6      -0.139000
     19 C24          9.2150     2.5340    -9.5880 ca         1 MK6      -0.117000
     20 C11          8.0260     3.2530    -9.6820 cp         1 MK6      -0.042000
     21 C10          7.1730     3.3260    -8.5830 ca         1 MK6      -0.095000
     22 C12          7.6660     3.9340   -10.9510 cp         1 MK6      -0.076000
     23 C17          7.4100     3.1840   -12.0970 ca         1 MK6      -0.025800
     24 C18          7.4980     1.6800   -12.0500 c3         1 MK6      -0.049300
     25 C16          7.0760     3.8190   -13.2740 ca         1 MK6      -0.198000
     26 C15          6.9950     5.2050   -13.3180 ca         1 MK6       0.146100
     27 C14          7.2500     5.9540   -12.1780 ca         1 MK6      -0.198000
     28 C13          7.5780     5.3240   -10.9960 ca         1 MK6      -0.025800
     29 C23          7.8470     6.1380    -9.7570 c3         1 MK6      -0.049300
     30 O1           6.6660     5.8290   -14.4790 os         1 MK6      -0.331900
     31 C19          6.6020     7.2550   -14.4540 c3         1 MK6       0.149400
     32 C20          6.2200     7.7740   -15.8430 c3         1 MK6      -0.059400
     33 C21          6.1510     9.3020   -15.8150 c3         1 MK6      -0.208600
     34 S            5.6980     9.9170   -17.4610 s6         1 MK6       1.103000
     35 O2           6.7490     9.6050   -18.3650 o          1 MK6      -0.609800
     36 O3           4.3770     9.4860   -17.7570 o          1 MK6      -0.609800
     37 C22          5.6760    11.7120   -17.1980 c3         1 MK6      -0.228300
     38 H2           2.9030    -0.5420    -1.3630 hc         1 MK6       0.067700
     39 H3           0.0600     0.0430    -2.5320 hc         1 MK6       0.110700
     40 H4           1.2530     2.0670    -1.8460 hc         1 MK6       0.097700
     41 H5           3.9510     3.2660    -2.5210 h4         1 MK6       0.025100
     42 H6           3.8340    -0.1640    -5.9990 ha         1 MK6       0.137000
     43 H7           2.2510    -1.4730    -3.7320 hc         1 MK6       0.052200
     44 H8           1.0910    -0.4830    -4.6990 hc         1 MK6       0.052200
     45 H9           6.0530     3.7170    -6.2390 h1         1 MK6       0.051200
     46 H10          7.1800     2.7280    -5.3010 h1         1 MK6       0.051200
     47 H11          8.9600     1.4860    -6.3890 ha         1 MK6       0.137000
     48 H12         10.4700     1.3430    -8.3310 ha         1 MK6       0.128000
     49 H13          9.8810     2.4720   -10.4400 ha         1 MK6       0.130000
     50 H14          6.2460     3.8840    -8.6510 ha         1 MK6       0.141000
     51 H15          7.0660     1.2650   -12.9530 hc         1 MK6       0.047700
     52 H16          6.9540     1.3130   -11.1880 hc         1 MK6       0.047700
     53 H17          8.5360     1.3810   -11.9760 hc         1 MK6       0.047700
     54 H18          6.8760     3.2370   -14.1660 ha         1 MK6       0.137000
     55 H19          7.1840     7.0350   -12.2150 ha         1 MK6       0.137000
     56 H20          8.7220     5.7470    -9.2510 hc         1 MK6       0.047700
     57 H21          8.0220     7.1710   -10.0340 hc         1 MK6       0.047700
     58 H22          6.9920     6.0820    -9.0940 hc         1 MK6       0.047700
     59 H23          5.8570     7.5700   -13.7340 h1         1 MK6       0.037200
     60 H24          7.5680     7.6560   -14.1720 h1         1 MK6       0.037200
     61 H25          6.9650     7.4600   -16.5630 hc         1 MK6       0.072700
     62 H26          5.2540     7.3740   -16.1250 hc         1 MK6       0.072700
     63 H27          7.1170     9.7020   -15.5330 h1         1 MK6       0.095700
     64 H28          5.4050     9.6160   -15.0940 h1         1 MK6       0.095700
     65 H29          5.4130    12.2090   -18.1230 h1         1 MK6       0.096700
     66 H30          6.6560    12.0420   -16.8750 h1         1 MK6       0.096700
     67 H31          4.9440    11.9560   -16.4370 h1         1 MK6       0.096700
@<TRIPOS>BOND
     1    18    17 ar
     2    18    19 ar
     3    17    16 ar
     4    19    20 ar
     5    16    15 1
     6    16    21 ar
     7    20    21 ar
     8    20    22 1
     9    24    23 1
    10    15    14 1
    11    22    23 ar
    12    22    28 ar
    13    23    25 ar
    14    14    10 1
    15    29    28 1
    16    28    27 ar
    17     1     2 1
    18    10     9 ar
    19    10    11 ar
    20    25    26 ar
    21     9     8 ar
    22    11    12 ar
    23    27    26 ar
    24     8     7 ar
    25    26    30 1
    26     4     2 1
    27     4     6 1
    28     4     5 1
    29     2     3 1
    30    12     7 ar
    31    12    13 1
    32     7     6 1
    33    30    31 1
    34    13     5 1
    35     6     5 1
    36    31    32 1
    37    33    32 1
    38    33    34 1
    39    36    34 2
    40    34    35 2
    41    34    37 1
    42     4    38 1
    43     5    39 1
    44     6    40 1
    45     8    41 1
    46    11    42 1
    47    13    43 1
    48    13    44 1
    49    15    45 1
    50    15    46 1
    51    17    47 1
    52    18    48 1
    53    19    49 1
    54    21    50 1
    55    24    51 1
    56    24    52 1
    57    24    53 1
    58    25    54 1
    59    27    55 1
    60    29    56 1
    61    29    57 1
    62    29    58 1
    63    31    59 1
    64    31    60 1
    65    32    61 1
    66    32    62 1
    67    33    63 1
    68    33    64 1
    69    37    65 1
    70    37    66 1
    71    37    67 1
@<TRIPOS>SUBSTRUCTURE
     1 MK6         1 TEMP              0 ****  ****    0 ROOT
