@<TRIPOS>MOLECULE
MK7
   44    45     1     0     0
SMALL
bcc


@<TRIPOS>ATOM
      1 C4           0.0000     0.0000     0.0000 c3         1 MK7      -0.063400
      2 C5           7.9330    -2.0250     1.5440 c3         1 MK7       0.153800
      3 C6           7.7570    -0.2130     3.1420 c3         1 MK7       0.153800
      4 C7          -0.0270     1.2820     2.1450 c3         1 MK7       0.049000
      5 C8           2.2080     2.0250     2.8120 c          1 MK7       0.613900
      6 C10          2.0380     0.0000     1.4460 c3         1 MK7      -0.027300
      7 C1           1.5310     0.0000     0.0000 c3         1 MK7      -0.029400
      8 C2           6.4110    -2.1590     1.4730 c3         1 MK7      -0.039900
      9 C3           6.2290    -0.2920     3.1190 c3         1 MK7      -0.039900
     10 C9           5.7700    -0.7950     1.7480 c3         1 MK7       0.014700
     11 C11          3.5380     0.1380     1.4550 c          1 MK7       0.565100
     12 C12         -0.5110     1.2660     0.6910 c3         1 MK7       0.104500
     13 N13          8.3220    -1.5420     2.8740 n7         1 MK7      -0.583200
     14 N14          4.3110    -0.9290     1.7400 ns         1 MK7      -0.186900
     15 N15         -1.9800     1.2810     0.6630 n7         1 MK7      -0.277700
     16 N16          1.4340     1.1350     2.1590 n          1 MK7      -0.169800
     17 O17         -4.4080    -1.0030     2.2370 o          1 MK7      -0.676533
     18 O18          1.7080     3.0100     3.3130 o          1 MK7      -0.660100
     19 O19          4.0510     1.2080     1.2070 o          1 MK7      -0.647100
     20 O20         -4.4970    -0.3530    -0.0270 o          1 MK7      -0.676533
     21 O21         -4.4970     1.3990     1.5490 o          1 MK7      -0.676533
     22 O22         -2.5300     0.1160     1.3550 os         1 MK7      -0.394000
     23 S23         -4.0500     0.0630     1.3670 s6         1 MK7       1.328300
     24 H1          -0.3600    -0.8710     0.5340 hc         1 MK7       0.034700
     25 H2          -0.3600    -0.0220    -1.0220 hc         1 MK7       0.034700
     26 H3           8.3880    -2.9910     1.3650 h1         1 MK7       0.005950
     27 H4           8.2670    -1.3190     0.7930 h1         1 MK7       0.005950
     28 H5           8.0850     0.1270     4.1170 h1         1 MK7       0.005950
     29 H6           8.0930     0.4810     2.3810 h1         1 MK7       0.005950
     30 H7          -0.3010     2.2220     2.6080 h1         1 MK7       0.055700
     31 H8          -0.4790     0.4590     2.6860 h1         1 MK7       0.055700
     32 H9           3.2680     1.8350     2.9310 h5         1 MK7       0.002200
     33 H10          1.7500    -0.9250     1.9300 h1         1 MK7       0.029700
     34 H11          1.8910    -0.8860    -0.5080 hc         1 MK7       0.019700
     35 H12          1.8910     0.8860    -0.5080 hc         1 MK7       0.019700
     36 H13          6.1250    -2.4990     0.4850 hc         1 MK7       0.027450
     37 H14          6.0770    -2.8710     2.2170 hc         1 MK7       0.027450
     38 H15          5.8150     0.6930     3.2990 hc         1 MK7       0.027450
     39 H16          5.8920    -0.9780     3.8870 hc         1 MK7       0.027450
     40 H17          6.0780    -0.0920     0.9840 h1         1 MK7       0.056700
     41 H18         -0.1260     2.1380     0.1750 h1         1 MK7       0.033700
     42 H19          9.3200    -1.4990     2.9350 hn         1 MK7       0.249800
     43 H21          3.8890    -1.8170     1.9250 hn         1 MK7       0.179500
     44 H22         -2.2950     1.2850    -0.2870 hn         1 MK7       0.259800
@<TRIPOS>BOND
     1     1     7 1   
     2     1    12 1   
     3     1    24 1   
     4     1    25 1   
     5     2     8 1   
     6     2    13 1   
     7     2    26 1   
     8     2    27 1   
     9     3     9 1   
    10     3    13 1   
    11     3    28 1   
    12     3    29 1   
    13     4    12 1   
    14     4    16 1   
    15     4    30 1   
    16     4    31 1   
    17     5    16 1   
    18     5    18 2   
    19     5    32 1   
    20     6     7 1   
    21     6    11 1   
    22     6    16 1   
    23     6    33 1   
    24     7    34 1   
    25     7    35 1   
    26     8    10 1   
    27     8    36 1   
    28     8    37 1   
    29     9    10 1   
    30     9    38 1   
    31     9    39 1   
    32    10    14 1   
    33    10    40 1   
    34    11    14 1   
    35    11    19 2   
    36    12    15 1   
    37    12    41 1   
    38    13    42 1   
    39    14    43 1   
    40    15    22 1   
    41    15    44 1   
    42    17    23 1   
    43    20    23 1   
    44    21    23 1   
    45    22    23 1   
@<TRIPOS>SUBSTRUCTURE
     1 MK7         1 TEMP              0 ****  ****    0 ROOT
