@<TRIPOS>MOLECULE
molecule
   84    87     1     0     0
SMALL
bcc


@<TRIPOS>ATOM
      1 ClR          0.0000     0.0000     0.0000 cl         1 MK9      -0.068400
      2 CAQ          1.7360     0.0000     0.0000 ca         1 MK9      -0.027600
      3 CAO          3.8180    -0.0000     1.2010 ca         1 MK9      -0.299000
      4 CAN          4.5120    -0.0010     0.0010 ca         1 MK9       0.188600
      5 OAT          5.8710     0.0030     0.0030 os         1 MK9      -0.306900
      6 CBS          6.5180     0.0090     1.2760 c3         1 MK9       0.127200
      7 CAM          3.8190    -0.0070    -1.2010 ca         1 MK9      -0.027600
      8 ClU          4.6900    -0.0080    -2.7030 cl         1 MK9      -0.068400
      9 CAP          2.4310     0.0000     1.2010 ca         1 MK9       0.188600
     10 OAS          1.7510     0.0000     2.3780 os         1 MK9      -0.306900
     11 CBR          2.5290     0.0000     3.5770 c3         1 MK9       0.127200
     12 CAL          2.4310    -0.0060    -1.2030 ca         1 MK9       0.156600
     13 NAI          1.7320    -0.0120    -2.4160 n          1 MK9      -0.402000
     14 CAJ          1.3530    -1.2850    -3.0540 c3         1 MK9       0.174300
     15 C5           0.6010    -1.1900    -4.3590 ca         1 MK9      -0.450900
     16 C6           0.1920    -2.3050    -5.0510 ca         1 MK9       0.537200
     17 N1          -0.4650    -2.1380    -6.1920 nb         1 MK9      -0.817000
     18 C2          -0.7220    -0.9240    -6.6570 ca         1 MK9       0.973900
     19 NAV         -1.4100    -0.7950    -7.8520 nu         1 MK9      -0.898900
     20 CAX         -1.8410    -1.9900    -8.5810 c3         1 MK9       0.246800
     21 N3          -0.3420     0.1710    -6.0140 nb         1 MK9      -0.849000
     22 C4           0.3190     0.0780    -4.8670 ca         1 MK9       0.652200
     23 CAH          1.3910     1.1450    -3.0120 c          1 MK9       0.841500
     24 OAK          1.7050     2.1890    -2.4720 o          1 MK9      -0.659500
     25 NAG          0.7280     1.2040    -4.1740 n          1 MK9      -0.434300
     26 CAW          0.4100     2.5220    -4.7320 c3         1 MK9       0.164300
     27 CBG          1.5350     2.9730    -5.6260 ca         1 MK9      -0.103300
     28 CBL          1.5160     2.6560    -6.9710 ca         1 MK9      -0.144000
     29 CBH          2.5810     3.7100    -5.1030 ca         1 MK9      -0.117000
     30 CBI          3.6120     4.1320    -5.9220 ca         1 MK9      -0.120000
     31 CBJ          3.6010     3.8180    -7.2660 ca         1 MK9      -0.119000
     32 CBK          2.5540     3.0730    -7.7950 ca         1 MK9       0.044600
     33 NBM          2.5390     2.7540    -9.1560 ns         1 MK9      -0.469100
     34 CBN          3.6960     2.5210    -9.8070 c          1 MK9       0.660300
     35 OBQ          4.7460     2.4990    -9.1910 o          1 MK9      -0.598100
     36 CBO          3.6910     2.2940   -11.2590 ce         1 MK9      -0.253200
     37 CBP          4.8330     2.0660   -11.9020 c2         1 MK9      -0.126000
     38 H1           4.3590    -0.0000     2.1400 ha         1 MK9       0.152000
     39 H2           6.2310    -0.8750     1.8320 h1         1 MK9       0.044700
     40 H3           6.2230     0.8940     1.8280 h1         1 MK9       0.044700
     41 H4           7.5920     0.0140     1.1350 h1         1 MK9       0.044700
     42 H5           3.1540    -0.8840     3.6020 h1         1 MK9       0.044700
     43 H6           3.1540     0.8850     3.6020 h1         1 MK9       0.044700
     44 H7           1.8690     0.0000     4.4360 h1         1 MK9       0.044700
     45 H8           0.7370    -1.8370    -2.3550 h1         1 MK9       0.052200
     46 H9           2.2600    -1.8500    -3.2330 h1         1 MK9       0.052200
     47 H10          0.4010    -3.2980    -4.6730 h4         1 MK9       0.033100
     48 H11         -1.6350     0.1140    -8.2040 hn         1 MK9       0.453800
     49 H12         -0.9750    -2.5860    -8.8410 h1         1 MK9       0.054700
     50 H13         -2.5070    -2.5730    -7.9560 h1         1 MK9       0.054700
     51 H15         -0.5060     2.4590    -5.3080 h1         1 MK9       0.081200
     52 H16          0.2810     3.2340    -3.9260 h1         1 MK9       0.081200
     53 H17          0.6990     2.0750    -7.3800 ha         1 MK9       0.141000
     54 H18          2.5920     3.9580    -4.0480 ha         1 MK9       0.153000
     55 H19          4.4290     4.7110    -5.5090 ha         1 MK9       0.135000
     56 H20          4.4100     4.1460    -7.9070 ha         1 MK9       0.157000
     57 H21          1.6670     2.5940    -9.6200 hn         1 MK9       0.321500
     58 H22          2.7570     2.3140   -11.8070 ha         1 MK9       0.125000
     59 H24          4.8280     1.8990   -12.9720 ha         1 MK9       0.130500
     60 H25          5.7680     2.0460   -11.3550 ha         1 MK9       0.130500
     61 CAY         -2.5750    -1.5710    -9.8570 c3         1 MK9      -0.104400
     62 CAZ         -3.0250    -2.8190   -10.6190 c3         1 MK9      -0.078400
     63 C7          -3.7570    -2.4010   -11.8960 c3         1 MK9       0.160800
     64 N2          -4.1900    -3.5990   -12.6270 n3         1 MK9      -0.729600
     65 C9          -5.0960    -3.2450   -13.7270 c3         1 MK9       0.155800
     66 C8          -3.0350    -4.3600   -13.1210 c3         1 MK9       0.155800
     67 C10         -3.4950    -5.7440   -13.5820 c3         1 MK9      -0.093600
     68 C11         -6.4540    -2.8310   -13.1560 c3         1 MK9      -0.093600
     69 H14         -1.9090    -0.9880   -10.4810 hc         1 MK9       0.045200
     70 H23         -3.4410    -0.9750    -9.5970 hc         1 MK9       0.045200
     71 H26         -3.6910    -3.4020    -9.9950 hc         1 MK9       0.054200
     72 H27         -2.1590    -3.4160   -10.8780 hc         1 MK9       0.054200
     73 H28         -3.0910    -1.8180   -12.5200 h1         1 MK9       0.034200
     74 H29         -4.6230    -1.8040   -11.6360 h1         1 MK9       0.034200
     75 H30         -4.6750    -2.4220   -14.2920 h1         1 MK9       0.033700
     76 H31         -5.2250    -4.1010   -14.3790 h1         1 MK9       0.033700
     77 H32         -2.5840    -3.8340   -13.9540 h1         1 MK9       0.033700
     78 H33         -2.3060    -4.4680   -12.3260 h1         1 MK9       0.033700
     79 H34         -2.7040    -6.4640   -13.4080 hc         1 MK9       0.039533
     80 H35         -4.3770    -6.0350   -13.0250 hc         1 MK9       0.039533
     81 H36         -3.7290    -5.7130   -14.6390 hc         1 MK9       0.039533
     82 H37         -6.4750    -1.7560   -13.0170 hc         1 MK9       0.039533
     83 H38         -7.2390    -3.1210   -13.8430 hc         1 MK9       0.039533
     84 H39         -6.6100    -3.3210   -12.2020 hc         1 MK9       0.039533
@<TRIPOS>BOND
     1    11    10 1
     2    10     9 1
     3     9     3 ar
     4     9     2 ar
     5     1     2 1
     6     3     4 ar
     7     2    12 ar
     8    30    31 ar
     9    30    29 ar
    10    31    32 ar
    11     4     5 1
    12     4     7 ar
    13    29    27 ar
    14    12     7 ar
    15    12    13 1
    16     6     5 1
    17    24    23 2
    18    32    33 1
    19    32    28 ar
    20    33    34 1
    21     7     8 1
    22    13    23 1
    23    13    14 1
    24    23    25 1
    25    27    28 ar
    26    27    26 1
    27    34    36 1
    28    34    35 2
    29    36    37 2
    30    14    15 1
    31    26    25 1
    32    25    22 1
    33    15    22 ar
    34    15    16 ar
    35    22    21 ar
    36    16    17 ar
    37    21    18 ar
    38    17    18 ar
    39    18    19 1
    40    20    19 1
    41     3    38 1
    42     6    39 1
    43     6    40 1
    44     6    41 1
    45    11    42 1
    46    11    43 1
    47    11    44 1
    48    14    45 1
    49    14    46 1
    50    16    47 1
    51    19    48 1
    52    20    49 1
    53    20    50 1
    54    26    51 1
    55    26    52 1
    56    28    53 1
    57    29    54 1
    58    30    55 1
    59    31    56 1
    60    33    57 1
    61    36    58 1
    62    37    59 1
    63    37    60 1
    64    20    61 1
    65    61    62 1
    66    62    63 1
    67    63    64 1
    68    64    65 1
    69    64    66 1
    70    66    67 1
    71    65    68 1
    72    61    69 1
    73    61    70 1
    74    62    71 1
    75    62    72 1
    76    63    73 1
    77    63    74 1
    78    65    75 1
    79    65    76 1
    80    66    77 1
    81    66    78 1
    82    67    79 1
    83    67    80 1
    84    67    81 1
    85    68    82 1
    86    68    83 1
    87    68    84 1
@<TRIPOS>SUBSTRUCTURE
     1 MK9         1 TEMP              0 ****  ****    0 ROOT
