@<TRIPOS>MOLECULE
MK9
   84    87     1     0     0
SMALL
bcc


@<TRIPOS>ATOM
      1 ClR          0.0000     0.0000     0.0000 cl         1 MK9       0.014600
      2 CAQ          1.7360     0.0000     0.0000 ca         1 MK9      -0.103100
      3 CAO          3.8180    -0.0000     1.2010 ca         1 MK9      -0.300000
      4 CAN          4.5120    -0.0010     0.0010 ca         1 MK9       0.201600
      5 OAT          5.8710     0.0030     0.0030 os         1 MK9      -0.293900
      6 CBS          6.5180     0.0090     1.2760 c3         1 MK9       0.244700
      7 CAM          3.8190    -0.0070    -1.2010 ca         1 MK9      -0.103100
      8 ClU          4.6900    -0.0080    -2.7030 cl         1 MK9       0.014600
      9 CAP          2.4310     0.0000     1.2010 ca         1 MK9       0.201600
     10 OAS          1.7510     0.0000     2.3780 os         1 MK9      -0.293900
     11 CBR          2.5290     0.0000     3.5770 c3         1 MK9       0.244700
     12 CAL          2.4310    -0.0060    -1.2030 ca         1 MK9       0.025600
     13 NAI          1.7320    -0.0120    -2.4160 n          1 MK9      -0.033000
     14 CAJ          1.3530    -1.2850    -3.0540 c3         1 MK9       0.130300
     15 C5           0.6010    -1.1900    -4.3590 ca         1 MK9      -0.463900
     16 C6           0.1920    -2.3050    -5.0510 ca         1 MK9       0.540200
     17 N1          -0.4650    -2.1380    -6.1920 nb         1 MK9      -0.728000
     18 C2          -0.7220    -0.9240    -6.6570 ca         1 MK9       0.752900
     19 NAV         -1.4100    -0.7950    -7.8520 nu         1 MK9      -0.486900
     20 CAX         -1.8410    -1.9900    -8.5810 c3         1 MK9       0.164800
     21 N3          -0.3420     0.1710    -6.0140 nb         1 MK9      -0.739000
     22 C4           0.3190     0.0780    -4.8670 ca         1 MK9       0.472200
     23 CAH          1.3910     1.1450    -3.0120 c          1 MK9       0.622500
     24 OAK          1.7050     2.1890    -2.4720 o          1 MK9      -0.713500
     25 NAG          0.7280     1.2040    -4.1740 n          1 MK9      -0.034300
     26 CAW          0.4100     2.5220    -4.7320 c3         1 MK9       0.087300
     27 CBG          1.5350     2.9730    -5.6260 ca         1 MK9      -0.107300
     28 CBL          1.5160     2.6560    -6.9710 ca         1 MK9      -0.124000
     29 CBH          2.5810     3.7100    -5.1030 ca         1 MK9      -0.091000
     30 CBI          3.6120     4.1320    -5.9220 ca         1 MK9      -0.088000
     31 CBJ          3.6010     3.8180    -7.2660 ca         1 MK9      -0.095000
     32 CBK          2.5540     3.0730    -7.7950 ca         1 MK9      -0.100400
     33 NBM          2.5390     2.7540    -9.1560 ns         1 MK9      -0.023100
     34 CBN          3.6960     2.5210    -9.8070 c          1 MK9       0.566300
     35 OBQ          4.7460     2.4990    -9.1910 o          1 MK9      -0.639100
     36 CBO          3.6910     2.2940   -11.2590 ce         1 MK9      -0.248200
     37 CBP          4.8330     2.0660   -11.9020 c2         1 MK9      -0.053000
     38 H1           4.3590    -0.0000     2.1400 ha         1 MK9       0.144000
     39 H2           6.2230     0.8940     1.8280 h1         1 MK9      -0.000633
     40 H3           6.2310    -0.8750     1.8320 h1         1 MK9      -0.000633
     41 H4           7.5920     0.0140     1.1350 h1         1 MK9      -0.000633
     42 H5           3.1540     0.8850     3.6020 h1         1 MK9      -0.000633
     43 H6           3.1540    -0.8840     3.6020 h1         1 MK9      -0.000633
     44 H7           1.8690     0.0010     4.4360 h1         1 MK9      -0.000633
     45 H8           0.7370    -1.8370    -2.3550 h1         1 MK9       0.019700
     46 H9           2.2600    -1.8500    -3.2330 h1         1 MK9       0.019700
     47 H10          0.4010    -3.2980    -4.6730 h4         1 MK9      -0.015900
     48 H11         -1.6230     0.1150    -8.2110 hn         1 MK9       0.298800
     49 H12         -2.5070    -2.5730    -7.9560 h1         1 MK9       0.027700
     50 H13         -0.9750    -2.5870    -8.8410 h1         1 MK9       0.027700
     51 H15          0.2810     3.2340    -3.9260 h1         1 MK9       0.051700
     52 H16         -0.5060     2.4590    -5.3080 h1         1 MK9       0.051700
     53 H17          0.6990     2.0750    -7.3800 ha         1 MK9       0.119000
     54 H18          2.5920     3.9580    -4.0480 ha         1 MK9       0.130000
     55 H19          4.4290     4.7110    -5.5090 ha         1 MK9       0.106000
     56 H20          4.4100     4.1460    -7.9070 ha         1 MK9       0.137000
     57 H21          1.6670     2.5940    -9.6200 hn         1 MK9       0.163500
     58 H22          2.7570     2.3140   -11.8070 ha         1 MK9       0.103000
     59 H24          5.7680     2.0460   -11.3550 ha         1 MK9       0.092000
     60 H25          4.8280     1.8990   -12.9720 ha         1 MK9       0.092000
     61 CAY         -2.5750    -1.5710    -9.8570 c3         1 MK9      -0.040400
     62 CAZ         -3.0250    -2.8190   -10.6190 c3         1 MK9      -0.032400
     63 C7          -3.7570    -2.4010   -11.8960 c3         1 MK9       0.146800
     64 N2          -4.1900    -3.5990   -12.6270 n3         1 MK9      -0.539600
     65 C9          -5.0960    -3.2450   -13.7270 c3         1 MK9       0.142300
     66 C8          -3.0350    -4.3600   -13.1210 c3         1 MK9       0.142300
     67 C10         -3.4950    -5.7440   -13.5820 c3         1 MK9      -0.001100
     68 C11         -6.4540    -2.8310   -13.1560 c3         1 MK9      -0.001100
     69 H14         -1.9090    -0.9880   -10.4810 hc         1 MK9       0.016200
     70 H23         -3.4410    -0.9750    -9.5970 hc         1 MK9       0.016200
     71 H26         -2.1590    -3.4160   -10.8780 hc         1 MK9       0.027700
     72 H27         -3.6910    -3.4020    -9.9950 hc         1 MK9       0.027700
     73 H28         -4.6230    -1.8040   -11.6360 h1         1 MK9       0.010700
     74 H29         -3.0910    -1.8180   -12.5200 h1         1 MK9       0.010700
     75 H30         -5.2250    -4.1010   -14.3790 h1         1 MK9       0.010450
     76 H31         -4.6750    -2.4220   -14.2920 h1         1 MK9       0.010450
     77 H32         -2.3060    -4.4680   -12.3260 h1         1 MK9       0.010450
     78 H33         -2.5840    -3.8340   -13.9540 h1         1 MK9       0.010450
     79 H34         -3.7460    -5.7090   -14.6350 hc         1 MK9       0.007033
     80 H35         -2.6980    -6.4610   -13.4250 hc         1 MK9       0.007033
     81 H36         -4.3670    -6.0430   -13.0130 hc         1 MK9       0.007033
     82 H37         -6.6100    -3.3210   -12.2020 hc         1 MK9       0.007033
     83 H38         -6.4750    -1.7560   -13.0170 hc         1 MK9       0.007033
     84 H39         -7.2390    -3.1210   -13.8430 hc         1 MK9       0.007033
@<TRIPOS>BOND
     1     1     2 1   
     2     2     9 ar  
     3     2    12 ar  
     4     3     4 ar  
     5     3     9 ar  
     6     3    38 1   
     7     4     5 1   
     8     4     7 ar  
     9     5     6 1   
    10     6    39 1   
    11     6    40 1   
    12     6    41 1   
    13     7     8 1   
    14     7    12 ar  
    15     9    10 1   
    16    10    11 1   
    17    11    42 1   
    18    11    43 1   
    19    11    44 1   
    20    12    13 1   
    21    13    14 1   
    22    13    23 1   
    23    14    15 1   
    24    14    45 1   
    25    14    46 1   
    26    15    16 ar  
    27    15    22 ar  
    28    16    17 ar  
    29    16    47 1   
    30    17    18 ar  
    31    18    19 1   
    32    18    21 ar  
    33    19    20 1   
    34    19    48 1   
    35    20    49 1   
    36    20    50 1   
    37    20    61 1   
    38    21    22 ar  
    39    22    25 1   
    40    23    24 2   
    41    23    25 1   
    42    25    26 1   
    43    26    27 1   
    44    26    51 1   
    45    26    52 1   
    46    27    28 ar  
    47    27    29 ar  
    48    28    32 ar  
    49    28    53 1   
    50    29    30 ar  
    51    29    54 1   
    52    30    31 ar  
    53    30    55 1   
    54    31    32 ar  
    55    31    56 1   
    56    32    33 1   
    57    33    34 1   
    58    33    57 1   
    59    34    35 2   
    60    34    36 1   
    61    36    37 2   
    62    36    58 1   
    63    37    59 1   
    64    37    60 1   
    65    61    62 1   
    66    61    69 1   
    67    61    70 1   
    68    62    63 1   
    69    62    71 1   
    70    62    72 1   
    71    63    64 1   
    72    63    73 1   
    73    63    74 1   
    74    64    65 1   
    75    64    66 1   
    76    65    68 1   
    77    65    75 1   
    78    65    76 1   
    79    66    67 1   
    80    66    77 1   
    81    66    78 1   
    82    67    79 1   
    83    67    80 1   
    84    67    81 1   
    85    68    82 1   
    86    68    83 1   
    87    68    84 1   
@<TRIPOS>SUBSTRUCTURE
     1 MK9         1 TEMP              0 ****  ****    0 ROOT
