@<TRIPOS>MOLECULE
molecule
   44    45     1     0     0
SMALL
bcc


@<TRIPOS>ATOM
      1 C1           0.0000     0.0000     0.0000 ca         1 MKC      -0.101300
      2 C2           1.3830     0.0000     0.0000 ca         1 MKC      -0.108000
      3 C3           2.0740     0.0000     1.1960 ca         1 MKC      -0.128500
      4 C4           1.3840    -0.0010     2.3930 ca         1 MKC      -0.122000
      5 C5           0.0010     0.0000     2.3940 ca         1 MKC      -0.128500
      6 C6          -0.6900     0.0060     1.1970 ca         1 MKC      -0.108000
      7 C7          -1.1540    -1.4080    -1.6530 cc         1 MKC       0.094400
      8 N8          -0.3070    -2.2040    -2.3760 n          1 MKC      -0.382000
      9 C9          -0.6540    -3.4630    -2.6930 c          1 MKC       0.811500
     10 O9           0.1170    -4.1560    -3.3300 o          1 MKC      -0.670500
     11 N10         -1.8420    -3.9690    -2.3140 ns         1 MKC      -0.559500
     12 C11         -2.7070    -3.2160    -1.6060 c          1 MKC       0.714700
     13 O11         -3.7820    -3.6730    -1.2620 o          1 MKC      -0.622500
     14 C12         -2.3530    -1.8890    -1.2660 cd         1 MKC      -0.270400
     15 C13         -0.7540     0.0020    -1.3040 c3         1 MKC      -0.000900
     16 C14         -3.3030    -1.0250    -0.4750 c3         1 MKC      -0.003500
     17 C15         -4.5740    -0.7850    -1.2920 c3         1 MKC      -0.088100
     18 C16         -3.6630    -1.7290     0.8330 c3         1 MKC      -0.088100
     19 C17          0.9930    -1.6810    -2.8020 c3         1 MKC       0.289800
     20 O17          1.9570    -1.9040    -1.7710 os         1 MKC      -0.408600
     21 C18          2.3620    -3.2690    -1.8740 c3         1 MKC       0.112400
     22 C19          3.4970    -3.5410    -0.8840 c3         1 MKC      -0.094100
     23 H2           1.9240    -0.0020    -0.9380 ha         1 MKC       0.140500
     24 H3           3.1580    -0.0000     1.1960 ha         1 MKC       0.131500
     25 H4           1.9260    -0.0030     3.3310 ha         1 MKC       0.129000
     26 H5          -0.5400     0.0020     3.3320 ha         1 MKC       0.131500
     27 H6          -1.7730     0.0060     1.1970 ha         1 MKC       0.140500
     28 HN1         -2.0850    -4.9090    -2.5590 hn         1 MKC       0.362500
     29 H131        -1.6410     0.6160    -1.2080 hc         1 MKC       0.070200
     30 H132        -0.1210     0.4020    -2.0870 hc         1 MKC       0.070200
     31 H14         -2.8300    -0.0750    -0.2560 hc         1 MKC       0.051700
     32 H151        -5.2020    -1.6680    -1.2510 hc         1 MKC       0.041700
     33 H152        -4.3090    -0.5790    -2.3220 hc         1 MKC       0.041700
     34 H153        -5.1130     0.0600    -0.8820 hc         1 MKC       0.041700
     35 H161        -3.9130    -0.9890     1.5840 hc         1 MKC       0.041700
     36 H162        -2.8180    -2.3170     1.1710 hc         1 MKC       0.041700
     37 H163        -4.5140    -2.3800     0.6700 hc         1 MKC       0.041700
     38 H171         0.9090    -0.6180    -2.9940 h2         1 MKC       0.081700
     39 H172         1.3070    -2.1870    -3.7060 h2         1 MKC       0.081700
     40 H181         2.7050    -3.4700    -2.8810 h1         1 MKC       0.044200
     41 H182         1.5210    -3.9130    -1.6440 h1         1 MKC       0.044200
     42 H191         4.2130    -2.7280    -0.9240 hc         1 MKC       0.044367
     43 H192         3.9900    -4.4690    -1.1460 hc         1 MKC       0.044367
     44 H193         3.0920    -3.6170     0.1180 hc         1 MKC       0.044367
@<TRIPOS>BOND
     1     1     2 ar
     2     1     6 ar
     3     1    15 1
     4     2     3 ar
     5     2    23 1
     6     3     4 ar
     7     3    24 1
     8     4     5 ar
     9     4    25 1
    10     5     6 ar
    11     5    26 1
    12     6    27 1
    13     7     8 1
    14     7    14 2
    15     7    15 1
    16     8     9 1
    17     8    19 1
    18     9    10 2
    19     9    11 1
    20    11    12 1
    21    11    28 1
    22    12    13 2
    23    12    14 1
    24    14    16 1
    25    15    29 1
    26    15    30 1
    27    16    17 1
    28    16    18 1
    29    16    31 1
    30    17    32 1
    31    17    33 1
    32    17    34 1
    33    18    35 1
    34    18    36 1
    35    18    37 1
    36    19    20 1
    37    19    38 1
    38    19    39 1
    39    20    21 1
    40    21    22 1
    41    21    40 1
    42    21    41 1
    43    22    42 1
    44    22    43 1
    45    22    44 1
@<TRIPOS>SUBSTRUCTURE
     1 MKC         1 TEMP              0 ****  ****    0 ROOT
