@<TRIPOS>MOLECULE
MKE
   20    19     1     0     0
SMALL
bcc


@<TRIPOS>ATOM
      1 N           0.1350    0.3550   -0.4820 n3        1 MKE     -0.901800
      2 CA          1.5000    0.0300   -0.1050 c3        1 MKE      0.057500
      3 CB          1.7500   -0.1530    1.4030 c3        1 MKE     -0.097400
      4 CG          1.4180    1.0890    2.1910 c3        1 MKE     -0.204400
      5 CD          2.1820    1.1240    3.5310 c         1 MKE      0.911600
      6 OE1         1.5700    1.5790    4.5370 o         1 MKE     -0.846300
      7 OE2         3.3800    0.7190    3.5490 o         1 MKE     -0.846300
      8 C           2.0150   -1.2200   -0.8090 c         1 MKE      0.579100
      9 O           1.2960   -2.1860   -1.0890 o         1 MKE     -0.563100
     10 CMK         3.4780   -1.2040   -1.1180 c3        1 MKE     -0.205100
     11 HN1        -0.2280    1.0290    0.1670 hn        1 MKE      0.349800
     12 HN2        -0.4360   -0.4690   -0.4350 hn        1 MKE      0.349800
     13 HA          2.1330    0.9040   -0.4530 h1        1 MKE      0.067700
     14 HB1         2.8350   -0.3950    1.5670 hc        1 MKE      0.057700
     15 HB2         1.1480   -1.0200    1.7800 hc        1 MKE      0.057700
     16 HG1         1.7130    2.0050    1.6180 hc        1 MKE      0.023700
     17 HG2         0.3200    1.1490    2.3960 hc        1 MKE      0.023700
     18 HMK1        4.0560   -0.9570   -0.1930 hc        1 MKE      0.062033
     19 HMK2        3.6850   -0.4200   -1.8870 hc        1 MKE      0.062033
     20 HMK3        3.8140   -2.1940   -1.5090 hc        1 MKE      0.062033
@<TRIPOS>BOND
     1    1    2 1   
     2    1   11 1   
     3    1   12 1   
     4    2    3 1   
     5    2    8 1   
     6    2   13 1   
     7    3    4 1   
     8    3   14 1   
     9    3   15 1   
    10    4    5 1   
    11    4   16 1   
    12    4   17 1   
    13    5    6 1   
    14    5    7 1   
    15    8    9 2   
    16    8   10 1   
    17   10   18 1   
    18   10   19 1   
    19   10   20 1   
@<TRIPOS>SUBSTRUCTURE
     1 MKE         1 TEMP              0 ****  ****    0 ROOT
