@<TRIPOS>MOLECULE
molecule
   60    63     1     0     0
SMALL
bcc


@<TRIPOS>ATOM
      1 O1           0.0000     0.0000     0.0000 o          1 MKH      -0.618500
      2 C2           1.2170     0.0000     0.0000 c          1 MKH       0.703700
      3 N3           1.8980     0.0000     1.1650 ns         1 MKH      -0.560500
      4 C4           3.2440    -0.0010     1.1630 c          1 MKH       0.807500
      5 N5           3.9350    -0.0010     0.0080 n          1 MKH      -0.367000
      6 C6           3.2820    -0.0010    -1.1940 cc         1 MKH       0.036600
      7 C7           1.9320    -0.0060    -1.2220 cd         1 MKH      -0.327200
      8 O8           3.8440    -0.0000     2.2210 o          1 MKH      -0.653500
      9 C9           5.3990    -0.0010     0.0400 c3         1 MKH       0.117000
     10 C10          5.9090    -1.4440     0.0500 c3         1 MKH      -0.083400
     11 C11          7.4380    -1.4440     0.0820 c3         1 MKH      -0.235600
     12 S12          8.0430    -3.1550     0.0960 s6         1 MKH       1.349900
     13 N13          9.6820    -3.0130     0.2890 n3         1 MKH      -0.806500
     14 C14         10.3800    -2.7940     1.5680 c3         1 MKH       0.232800
     15 C15         11.8100    -3.3420     1.3380 c3         1 MKH      -0.090400
     16 C16         12.0700    -2.9270    -0.1340 c3         1 MKH      -0.088400
     17 C17         10.6810    -3.0890    -0.7860 c3         1 MKH       0.241500
     18 O18          7.6090    -3.8280     1.2690 o          1 MKH      -0.627300
     19 O19          7.8910    -3.7470    -1.1870 o          1 MKH      -0.627300
     20 C20         10.4480    -1.9630    -1.7950 c3         1 MKH       0.227400
     21 O21         10.2410    -0.7330    -1.0960 oh         1 MKH      -0.607800
     22 C22         11.6530    -1.8340    -2.6920 ca         1 MKH      -0.107800
     23 C23         11.9870    -0.6050    -3.2280 ca         1 MKH      -0.104250
     24 C24         13.0920    -0.4870    -4.0500 ca         1 MKH      -0.123000
     25 C25         13.8620    -1.5980    -4.3370 ca         1 MKH      -0.115500
     26 C26         13.5280    -2.8280    -3.8000 ca         1 MKH      -0.123000
     27 C27         12.4260    -2.9450    -2.9730 ca         1 MKH      -0.104250
     28 C28          9.2330    -2.2770    -2.6290 ca         1 MKH      -0.107800
     29 C29          8.2410    -1.3280    -2.7910 ca         1 MKH      -0.104250
     30 C30          7.1260    -1.6170    -3.5560 ca         1 MKH      -0.123000
     31 C31          7.0030    -2.8550    -4.1570 ca         1 MKH      -0.115500
     32 C32          7.9950    -3.8040    -3.9950 ca         1 MKH      -0.123000
     33 C33          9.1120    -3.5140    -3.2350 ca         1 MKH      -0.104250
     34 HN3          1.4000     0.0000     2.0330 hn         1 MKH       0.364500
     35 H6           3.8450    -0.0040    -2.1200 h4         1 MKH       0.163000
     36 H7           1.4030    -0.0060    -2.1670 ha         1 MKH       0.178000
     37 H9           5.7790     0.5100    -0.8370 h1         1 MKH       0.073700
     38 H9A          5.7410     0.5090     0.9320 h1         1 MKH       0.073700
     39 H10          5.5660    -1.9540    -0.8420 hc         1 MKH       0.066200
     40 H10A         5.5290    -1.9540     0.9270 hc         1 MKH       0.066200
     41 H11          7.7810    -0.9330     0.9740 h1         1 MKH       0.112200
     42 H11A         7.8180    -0.9330    -0.7950 h1         1 MKH       0.112200
     43 H14         10.4160    -1.7370     1.8010 h1         1 MKH       0.052700
     44 H14A         9.8900    -3.3450     2.3620 h1         1 MKH       0.052700
     45 H15         11.8320    -4.4200     1.4440 hc         1 MKH       0.056700
     46 H15A        12.5180    -2.8650     2.0040 hc         1 MKH       0.056700
     47 H16         12.7900    -3.5920    -0.5970 hc         1 MKH       0.055200
     48 H16A        12.3990    -1.8960    -0.1870 hc         1 MKH       0.055200
     49 H17         10.6170    -4.0520    -1.2790 h1         1 MKH       0.070700
     50 HO21        11.0430    -0.2370    -1.0890 ho         1 MKH       0.415000
     51 H23         11.3830     0.2660    -3.0030 ha         1 MKH       0.133750
     52 H24         13.3540     0.4760    -4.4710 ha         1 MKH       0.128750
     53 H25         14.7270    -1.5060    -4.9830 ha         1 MKH       0.129500
     54 H26         14.1330    -3.6990    -4.0220 ha         1 MKH       0.128750
     55 H27         12.1650    -3.9080    -2.5530 ha         1 MKH       0.133750
     56 H29          8.3380    -0.3570    -2.3200 ha         1 MKH       0.133750
     57 H30          6.3490    -0.8730    -3.6830 ha         1 MKH       0.128750
     58 H31          6.1290    -3.0820    -4.7550 ha         1 MKH       0.129500
     59 H32          7.8990    -4.7740    -4.4680 ha         1 MKH       0.128750
     60 H33          9.8890    -4.2580    -3.1070 ha         1 MKH       0.133750
@<TRIPOS>BOND
     1     1     2 2
     2     2     3 1
     3     2     7 1
     4     3     4 1
     5     4     5 1
     6     4     8 2
     7     5     6 1
     8     5     9 1
     9     6     7 2
    10     9    10 1
    11    10    11 1
    12    11    12 1
    13    12    13 1
    14    12    18 2
    15    12    19 2
    16    13    14 1
    17    13    17 1
    18    14    15 1
    19    15    16 1
    20    16    17 1
    21    17    20 1
    22    20    21 1
    23    20    22 1
    24    20    28 1
    25    22    23 ar
    26    22    27 ar
    27    23    24 ar
    28    24    25 ar
    29    25    26 ar
    30    26    27 ar
    31    28    29 ar
    32    28    33 ar
    33    29    30 ar
    34    30    31 ar
    35    31    32 ar
    36    32    33 ar
    37     3    34 1
    38     6    35 1
    39     7    36 1
    40     9    37 1
    41     9    38 1
    42    10    39 1
    43    10    40 1
    44    11    41 1
    45    11    42 1
    46    14    43 1
    47    14    44 1
    48    15    45 1
    49    15    46 1
    50    16    47 1
    51    16    48 1
    52    17    49 1
    53    21    50 1
    54    23    51 1
    55    24    52 1
    56    25    53 1
    57    26    54 1
    58    27    55 1
    59    29    56 1
    60    30    57 1
    61    31    58 1
    62    32    59 1
    63    33    60 1
@<TRIPOS>SUBSTRUCTURE
     1 MKH         1 TEMP              0 ****  ****    0 ROOT
