@<TRIPOS>MOLECULE
molecule
   67    70     1     0     0
SMALL
bcc


@<TRIPOS>ATOM
      1 C1           0.0000     0.0000     0.0000 ca         1 MKK      -0.093300
      2 C2           1.3810     0.0000     0.0000 ca         1 MKK      -0.095000
      3 C3           2.0740     0.0000     1.2040 ca         1 MKK       0.128600
      4 C4           1.3730     0.0010     2.4060 ca         1 MKK       0.137900
      5 C5          -0.0090     0.0020     2.3970 ca         1 MKK      -0.163000
      6 C6          -0.6940     0.0070     1.1950 ca         1 MKK      -0.093000
      7 N4           3.4710     0.0000     1.2080 nh         1 MKK      -0.367100
      8 N1           4.1990     1.0450     1.3010 n2         1 MKK      -0.321400
      9 C24          5.4850     0.8570     1.2880 ce         1 MKK       0.178300
     10 C13          5.7430    -0.6330     1.1600 c3         1 MKK      -0.068000
     11 C14          4.3100    -1.2060     1.1110 c3         1 MKK       0.183800
     12 C17          6.4950    -0.9410    -0.1080 ca         1 MKK      -0.067300
     13 C19          5.9930    -0.5270    -1.3280 ca         1 MKK      -0.116500
     14 C20          6.6820    -0.8090    -2.4920 ca         1 MKK      -0.126500
     15 C21          7.8750    -1.5060    -2.4370 ca         1 MKK      -0.126000
     16 C22          8.3780    -1.9200    -1.2180 ca         1 MKK      -0.126500
     17 C23          7.6900    -1.6330    -0.0530 ca         1 MKK      -0.116500
     18 C29          6.4680     1.8610     1.3780 c          1 MKK       0.532800
     19 C9           6.0630     3.3120     1.3900 c3         1 MKK      -0.183100
     20 O39          7.6420     1.5580     1.4450 o          1 MKK      -0.534100
     21 F40          2.0420     0.0020     3.5800 f          1 MKK      -0.130900
     22 C10         -0.7510    -0.0010    -1.3070 c3         1 MKK      -0.046800
     23 C7           6.4970    -1.1620     2.3820 c3         1 MKK      -0.070400
     24 C8           5.7290    -0.7980     3.6530 c3         1 MKK      -0.087400
     25 C11          6.4470    -1.3870     4.8690 c3         1 MKK       0.164800
     26 N2           5.7090    -1.0370     6.0900 n3         1 MKK      -0.728600
     27 C12          4.3880    -1.6790     6.1110 c3         1 MKK       0.143300
     28 C15          6.4850    -1.3770     7.2900 c3         1 MKK       0.143300
     29 C16          5.7670    -0.8360     8.5300 c3         1 MKK       0.108000
     30 C18          3.5840    -1.1490     7.3020 c3         1 MKK       0.108000
     31 N3           4.3820    -1.3330     8.5230 n          1 MKK      -0.496800
     32 C25          3.8600    -1.9400     9.6070 c          1 MKK       0.661100
     33 C26          2.4800    -2.5420     9.5410 c3         1 MKK      -0.170100
     34 O1           4.5010    -2.0020    10.6350 o          1 MKK      -0.613100
     35 H2           1.9240    -0.0030    -0.9380 ha         1 MKK       0.150000
     36 H5          -0.5560     0.0050     3.3320 ha         1 MKK       0.151000
     37 H6          -1.7770     0.0070     1.1910 ha         1 MKK       0.143000
     38 H141         4.1350    -1.7180     0.1730 h1         1 MKK       0.065700
     39 H142         4.1320    -1.8630     1.9540 h1         1 MKK       0.065700
     40 H19          5.0580     0.0190    -1.3710 ha         1 MKK       0.132500
     41 H20          6.2870    -0.4850    -3.4480 ha         1 MKK       0.129500
     42 H21          8.4150    -1.7290    -3.3490 ha         1 MKK       0.129000
     43 H22          9.3140    -2.4640    -1.1750 ha         1 MKK       0.129500
     44 H23          8.0840    -1.9570     0.9020 ha         1 MKK       0.132500
     45 H91          5.4330     3.5050     2.2500 hc         1 MKK       0.062033
     46 H92          6.9480     3.9340     1.4440 hc         1 MKK       0.062033
     47 H93          5.5160     3.5420     0.4830 hc         1 MKK       0.062033
     48 H101        -0.4650     0.8660    -1.8890 hc         1 MKK       0.048367
     49 H102        -1.8160     0.0300    -1.1110 hc         1 MKK       0.048367
     50 H103        -0.5130    -0.9020    -1.8600 hc         1 MKK       0.048367
     51 H71          6.5880    -2.2390     2.3110 hc         1 MKK       0.059700
     52 H72          7.4850    -0.7180     2.4170 hc         1 MKK       0.059700
     53 H81          4.7250    -1.2010     3.5960 hc         1 MKK       0.054700
     54 H82          5.6800     0.2800     3.7490 hc         1 MKK       0.054700
     55 H111         7.4510    -0.9840     4.9250 h1         1 MKK       0.035700
     56 H112         6.4950    -2.4650     4.7730 h1         1 MKK       0.035700
     57 H121         3.8620    -1.4510     5.1910 h1         1 MKK       0.042450
     58 H122         4.5100    -2.7510     6.2070 h1         1 MKK       0.042450
     59 H151         6.5750    -2.4540     7.3680 h1         1 MKK       0.042450
     60 H152         7.4700    -0.9320     7.2210 h1         1 MKK       0.042450
     61 H161         5.7630     0.2470     8.5040 h1         1 MKK       0.061700
     62 H162         6.2720    -1.1820     9.4230 h1         1 MKK       0.061700
     63 H181         2.6560    -1.7020     7.3880 h1         1 MKK       0.061700
     64 H182         3.3760    -0.0960     7.1590 h1         1 MKK       0.061700
     65 H261         2.2240    -2.9660    10.5040 hc         1 MKK       0.059367
     66 H262         2.4610    -3.3200     8.7870 hc         1 MKK       0.059367
     67 H263         1.7620    -1.7720     9.2840 hc         1 MKK       0.059367
@<TRIPOS>BOND
     1     1    22 1
     2     1     6 ar
     3     1     2 ar
     4     2     3 ar
     5     2    35 1
     6     3     4 ar
     7     3     7 1
     8     4     5 ar
     9     4    21 1
    10     5     6 ar
    11     5    36 1
    12     6    37 1
    13     7     8 1
    14     7    11 1
    15     8     9 2
    16     9    10 1
    17     9    18 1
    18    10    23 1
    19    10    11 1
    20    10    12 1
    21    11    38 1
    22    11    39 1
    23    12    13 ar
    24    12    17 ar
    25    13    14 ar
    26    13    40 1
    27    14    15 ar
    28    14    41 1
    29    15    16 ar
    30    15    42 1
    31    16    17 ar
    32    16    43 1
    33    17    44 1
    34    18    19 1
    35    18    20 2
    36    19    45 1
    37    19    46 1
    38    19    47 1
    39    22    48 1
    40    22    49 1
    41    22    50 1
    42    23    24 1
    43    23    51 1
    44    23    52 1
    45    24    25 1
    46    24    53 1
    47    24    54 1
    48    25    26 1
    49    25    55 1
    50    25    56 1
    51    26    28 1
    52    26    27 1
    53    27    30 1
    54    27    57 1
    55    27    58 1
    56    28    29 1
    57    28    59 1
    58    28    60 1
    59    29    31 1
    60    29    61 1
    61    29    62 1
    62    30    31 1
    63    30    63 1
    64    30    64 1
    65    31    32 1
    66    32    34 2
    67    32    33 1
    68    33    65 1
    69    33    66 1
    70    33    67 1
@<TRIPOS>SUBSTRUCTURE
     1 MKK         1 TEMP              0 ****  ****    0 ROOT
