@<TRIPOS>MOLECULE
molecule
   66    70     1     0     0
SMALL
bcc


@<TRIPOS>ATOM
      1 C1           0.0000     0.0000     0.0000 ca         1 MKR       0.123900
      2 C2           1.3860     0.0000     0.0000 ca         1 MKR      -0.155000
      3 C3           2.0690     0.0000     1.2000 ca         1 MKR       0.134600
      4 C4           1.3800     0.0020     2.4170 ca         1 MKR       0.100100
      5 C5          -0.0070    -0.0030     2.4030 ca         1 MKR      -0.111000
      6 C6          -0.6890    -0.0030     1.2010 ca         1 MKR      -0.154000
      7 N2           3.4670    -0.0100     1.2560 nh         1 MKR      -0.336100
      8 N12          4.3160    -0.3820     0.3890 n2         1 MKR      -0.322400
      9 C8           5.5300    -0.5720     0.8250 ce         1 MKR       0.183300
     10 C14          5.5710    -0.1860     2.2940 c3         1 MKR      -0.063000
     11 C15          4.1590     0.3840     2.5100 c3         1 MKR       0.136500
     12 C18          5.8010    -1.3960     3.1630 ca         1 MKR      -0.078300
     13 C20          6.6140    -1.0530     0.0670 c          1 MKR       0.524800
     14 C9           6.3980    -1.5070    -1.3530 c3         1 MKR      -0.183100
     15 O25          7.7250    -1.1010     0.5590 o          1 MKR      -0.528100
     16 C26          5.7940    -2.6600     2.6040 ca         1 MKR      -0.120000
     17 C27          6.0050    -3.7700     3.4000 ca         1 MKR      -0.123000
     18 C28          6.2260    -3.6150     4.7570 ca         1 MKR      -0.123000
     19 C29          6.2350    -2.3500     5.3160 ca         1 MKR      -0.123000
     20 C30          6.0270    -1.2400     4.5170 ca         1 MKR      -0.120000
     21 O1           2.0450     0.0150     3.5990 os         1 MKR      -0.327900
     22 F1          -0.6770     0.0090    -1.1680 f          1 MKR      -0.134900
     23 C7           3.4280    -0.3490     3.6400 c3         1 MKR       0.136400
     24 C10          6.6380     0.8800     2.5510 c3         1 MKR      -0.065400
     25 C11          6.3960     2.0760     1.6270 c3         1 MKR      -0.087400
     26 C12          7.4350     3.1610     1.9150 c3         1 MKR       0.164800
     27 N3           7.2020     4.3090     1.0300 n3         1 MKR      -0.729600
     28 C16          8.3120     5.2680     1.1080 c3         1 MKR       0.143300
     29 C17          5.9180     4.9560     1.3320 c3         1 MKR       0.143300
     30 C19          8.1220     6.3540     0.0430 c3         1 MKR       0.108000
     31 C21          5.6290     6.0280     0.2770 c3         1 MKR       0.108000
     32 N1           6.7830     6.9390     0.2070 n          1 MKR      -0.496800
     33 C22          6.6170     8.2730     0.2920 c          1 MKR       0.661100
     34 C24          5.2520     8.8470     0.5760 c3         1 MKR      -0.170100
     35 O2           7.5660     9.0130     0.1390 o          1 MKR      -0.612100
     36 H2           1.9300     0.0020    -0.9370 ha         1 MKR       0.167000
     37 H5          -0.5570    -0.0050     3.3370 ha         1 MKR       0.156000
     38 H6          -1.7720    -0.0030     1.1990 ha         1 MKR       0.153000
     39 H15          4.1660     1.4580     2.6510 h1         1 MKR       0.097700
     40 H91          7.3330    -1.8680    -1.7630 hc         1 MKR       0.064033
     41 H92          6.0410    -0.6750    -1.9480 hc         1 MKR       0.064033
     42 H93          5.6650    -2.3040    -1.3700 hc         1 MKR       0.064033
     43 H26          5.6210    -2.7820     1.5410 ha         1 MKR       0.133500
     44 H27          5.9980    -4.7600     2.9620 ha         1 MKR       0.134000
     45 H28          6.3910    -4.4840     5.3820 ha         1 MKR       0.133000
     46 H29          6.4100    -2.2290     6.3780 ha         1 MKR       0.134000
     47 H30          6.0340    -0.2490     4.9550 ha         1 MKR       0.133500
     48 H71          3.8520    -0.0600     4.5940 h1         1 MKR       0.080700
     49 H72          3.5260    -1.4190     3.5010 h1         1 MKR       0.080700
     50 H101         7.6190     0.4650     2.3540 hc         1 MKR       0.064200
     51 H102         6.5840     1.2040     3.5830 hc         1 MKR       0.064200
     52 H111         6.4820     1.7580     0.5950 hc         1 MKR       0.051200
     53 H112         5.4020     2.4710     1.8020 hc         1 MKR       0.051200
     54 H121         7.3490     3.4790     2.9480 h1         1 MKR       0.037700
     55 H122         8.4280     2.7660     1.7410 h1         1 MKR       0.037700
     56 H161         9.2480     4.7510     0.9310 h1         1 MKR       0.041950
     57 H162         8.3250     5.7250     2.0900 h1         1 MKR       0.041950
     58 H171         5.1290     4.2140     1.3170 h1         1 MKR       0.041950
     59 H172         5.9690     5.4180     2.3110 h1         1 MKR       0.041950
     60 H191         8.2080     5.9140    -0.9430 h1         1 MKR       0.062450
     61 H192         8.8730     7.1240     0.1710 h1         1 MKR       0.062450
     62 H211         5.4790     5.5580    -0.6870 h1         1 MKR       0.062450
     63 H212         4.7440     6.5850     0.5580 h1         1 MKR       0.062450
     64 H241         4.9180     8.5170     1.5520 hc         1 MKR       0.059700
     65 H242         5.3050     9.9290     0.5590 hc         1 MKR       0.059700
     66 H243         4.5540     8.5080    -0.1790 hc         1 MKR       0.059700
@<TRIPOS>BOND
     1     1     2 ar
     2     1     6 ar
     3     1    22 1
     4     2     3 ar
     5     2    36 1
     6     3     7 1
     7     3     4 ar
     8     4    21 1
     9     4     5 ar
    10     5     6 ar
    11     5    37 1
    12     6    38 1
    13     7     8 1
    14     7    11 1
    15     8     9 2
    16     9    13 1
    17     9    10 1
    18    10    12 1
    19    10    24 1
    20    10    11 1
    21    11    23 1
    22    11    39 1
    23    12    16 ar
    24    12    20 ar
    25    13    15 2
    26    13    14 1
    27    14    40 1
    28    14    41 1
    29    14    42 1
    30    16    17 ar
    31    16    43 1
    32    17    18 ar
    33    17    44 1
    34    18    19 ar
    35    18    45 1
    36    19    20 ar
    37    19    46 1
    38    20    47 1
    39    21    23 1
    40    23    48 1
    41    23    49 1
    42    24    25 1
    43    24    50 1
    44    24    51 1
    45    25    26 1
    46    25    52 1
    47    25    53 1
    48    26    27 1
    49    26    54 1
    50    26    55 1
    51    27    28 1
    52    27    29 1
    53    28    30 1
    54    28    56 1
    55    28    57 1
    56    29    31 1
    57    29    58 1
    58    29    59 1
    59    30    32 1
    60    30    60 1
    61    30    61 1
    62    31    32 1
    63    31    62 1
    64    31    63 1
    65    32    33 1
    66    33    35 2
    67    33    34 1
    68    34    64 1
    69    34    65 1
    70    34    66 1
@<TRIPOS>SUBSTRUCTURE
     1 MKR         1 TEMP              0 ****  ****    0 ROOT
