@<TRIPOS>MOLECULE
molecule
   56    58     1     0     0
SMALL
bcc


@<TRIPOS>ATOM
      1 CAD          0.0000     0.0000     0.0000 c3         1 MKS      -0.099900
      2 CAS          1.5080     0.0000     0.0000 c2         1 MKS       0.033600
      3 CAE          2.2600     0.0000     1.3050 c3         1 MKS      -0.099900
      4 CAK          2.1620    -0.0020    -1.1340 c2         1 MKS      -0.491200
      5 CAO          1.4160     0.1410    -2.4360 c3         1 MKS      -0.054900
      6 CAX          2.0010     1.2810    -3.2280 ca         1 MKS       0.056700
      7 CBD          3.0470     1.0500    -4.1240 ca         1 MKS      -0.227600
      8 CAZ          3.5910    -0.3080    -4.3200 c          1 MKS       0.611300
      9 OAF          3.3260    -1.2270    -3.5660 o          1 MKS      -0.525100
     10 CBC          4.4760    -0.4850    -5.4860 ca         1 MKS      -0.288600
     11 CAV          4.8390    -1.7640    -5.9300 ca         1 MKS       0.222100
     12 OAI          4.3870    -2.8660    -5.2800 oh         1 MKS      -0.500100
     13 CAW          5.6600    -1.8930    -7.0350 ca         1 MKS      -0.162300
     14 CAN          6.0530    -3.2630    -7.5250 c3         1 MKS       0.016100
     15 CAJ          5.0430    -3.7460    -8.5330 c2         1 MKS      -0.175200
     16 CAR          5.4400    -4.1690    -9.7080 c2         1 MKS      -0.125400
     17 CAC          4.4260    -4.4820   -10.7780 c3         1 MKS      -0.051900
     18 CAB          6.9100    -4.3450    -9.9880 c3         1 MKS      -0.051900
     19 CAT          6.1210    -0.7600    -7.6950 ca         1 MKS       0.198100
     20 OAG          6.9230    -0.8960    -8.7820 oh         1 MKS      -0.492100
     21 CAL          5.7710     0.5080    -7.2570 ca         1 MKS      -0.251000
     22 CBA          4.9500     0.6610    -6.1480 ca         1 MKS       0.210100
     23 OAQ          4.6240     1.8970    -5.7180 os         1 MKS      -0.218200
     24 CBB          3.6020     2.1070    -4.8620 ca         1 MKS       0.183100
     25 CAM          3.0890     3.3890    -4.6980 ca         1 MKS      -0.213000
     26 CAU          2.0520     3.6130    -3.8110 ca         1 MKS       0.155100
     27 OAH          1.5580     4.8690    -3.6580 oh         1 MKS      -0.502100
     28 CAY          1.5030     2.5580    -3.0770 ca         1 MKS       0.058100
     29 OAP          0.4810     2.7930    -2.2090 os         1 MKS      -0.344900
     30 CAA          0.8350     3.1220    -0.8650 c3         1 MKS       0.125700
     31 H1          -0.3610    -0.9160    -0.4510 hc         1 MKS       0.053867
     32 H2          -0.3610     0.0680     1.0190 hc         1 MKS       0.053867
     33 H3          -0.3610     0.8490    -0.5680 hc         1 MKS       0.053867
     34 H4           1.8200     0.7280     1.9760 hc         1 MKS       0.053867
     35 H5           3.2970     0.2560     1.1240 hc         1 MKS       0.053867
     36 H6           2.2050    -0.9840     1.7540 hc         1 MKS       0.053867
     37 H7           1.6980    -0.8530    -1.6170 ha         1 MKS       0.334000
     38 H8           1.5030    -0.7760    -3.0050 hc         1 MKS       0.062700
     39 H9           0.3710     0.3420    -2.2330 hc         1 MKS       0.062700
     40 H10          4.9800    -3.0840    -4.5810 ho         1 MKS       0.439000
     41 H11          7.0310    -3.2130    -7.9890 hc         1 MKS       0.058700
     42 H12          6.0850    -3.9500    -6.6880 hc         1 MKS       0.058700
     43 H13          3.9850    -3.6220    -8.3340 ha         1 MKS       0.133000
     44 H14          4.9260    -4.9320   -11.6280 hc         1 MKS       0.040867
     45 H15          3.6890    -5.1720   -10.3860 hc         1 MKS       0.040867
     46 H16          3.9360    -3.5680   -11.0900 hc         1 MKS       0.040867
     47 H17          7.0390    -4.9310   -10.8900 hc         1 MKS       0.040867
     48 H18          7.3780    -4.8570    -9.1550 hc         1 MKS       0.040867
     49 H19          7.3710    -3.3740   -10.1190 hc         1 MKS       0.040867
     50 H20          7.5870    -0.2260    -8.7690 ho         1 MKS       0.426000
     51 H21          6.1390     1.3810    -7.7810 ha         1 MKS       0.152000
     52 H22          3.5100     4.2160    -5.2580 ha         1 MKS       0.156000
     53 H23          1.1980     5.1670    -4.4760 ho         1 MKS       0.428000
     54 H24          0.9240     4.1970    -0.7670 h1         1 MKS       0.042367
     55 H25          0.0680     2.7600    -0.1910 h1         1 MKS       0.042367
     56 H26          1.7820     2.6570    -0.6170 h1         1 MKS       0.042367
@<TRIPOS>BOND
     1     1     2 1
     2     3     2 1
     3     2     4 2
     4    30    29 1
     5     4     5 1
     6    29    28 1
     7     5     6 1
     8    28     6 ar
     9    28    26 ar
    10     6     7 ar
    11    27    26 1
    12     9     8 2
    13    26    25 ar
    14     7     8 1
    15     7    24 ar
    16     8    10 1
    17    25    24 ar
    18    24    23 1
    19    12    11 1
    20    10    11 ar
    21    10    22 ar
    22    11    13 ar
    23    23    22 1
    24    22    21 ar
    25    13    14 1
    26    13    19 ar
    27    14    15 1
    28    21    19 ar
    29    15    16 2
    30    19    20 1
    31    16    18 1
    32    16    17 1
    33     1    31 1
    34     1    32 1
    35     1    33 1
    36     3    34 1
    37     3    35 1
    38     3    36 1
    39     4    37 1
    40     5    38 1
    41     5    39 1
    42    12    40 1
    43    14    41 1
    44    14    42 1
    45    15    43 1
    46    17    44 1
    47    17    45 1
    48    17    46 1
    49    18    47 1
    50    18    48 1
    51    18    49 1
    52    20    50 1
    53    21    51 1
    54    25    52 1
    55    27    53 1
    56    30    54 1
    57    30    55 1
    58    30    56 1
@<TRIPOS>SUBSTRUCTURE
     1 MKS         1 TEMP              0 ****  ****    0 ROOT
