@<TRIPOS>MOLECULE
MKS
   56    58     1     0     0
SMALL
bcc


@<TRIPOS>ATOM
      1 CAD         0.2030    0.2710    0.4030 c3        1 MKS     -0.060400
      2 CAS         1.5540   -0.1950    0.0060 c2        1 MKS     -0.121400
      3 CAE         2.4190   -0.6630    1.1180 c3        1 MKS     -0.060400
      4 CAK         1.9880   -0.2110   -1.2640 c2        1 MKS     -0.161200
      5 CAO         1.1830    0.1910   -2.4450 c3        1 MKS     -0.016900
      6 CAX         1.8640    1.2510   -3.2510 ca        1 MKS      0.051700
      7 CBD         2.8790    0.9600   -4.1930 ca        1 MKS     -0.231600
      8 CAZ         3.3690   -0.4040   -4.4490 c         1 MKS      0.625300
      9 OAF         2.9860   -1.3900   -3.7910 o         1 MKS     -0.589100
     10 CBC         4.3500   -0.5480   -5.5290 ca        1 MKS     -0.333600
     11 CAV         4.8550   -1.8040   -5.9560 ca        1 MKS      0.261100
     12 OAI         4.4810   -3.0000   -5.4220 oh        1 MKS     -0.495100
     13 CAW         5.8090   -1.9060   -6.9940 ca        1 MKS     -0.171300
     14 CAN         6.3260   -3.2370   -7.4220 c3        1 MKS      0.019100
     15 CAJ         5.3700   -3.9380   -8.3170 c2        1 MKS     -0.170200
     16 CAR         5.5890   -4.2260   -9.6080 c2        1 MKS     -0.116400
     17 CAC         4.5820   -4.9600  -10.4150 c3        1 MKS     -0.060900
     18 CAB         6.8300   -3.8490  -10.3290 c3        1 MKS     -0.060900
     19 CAT         6.2580   -0.7230   -7.6050 ca        1 MKS      0.216100
     20 OAG         7.1920   -0.8500   -8.6020 oh        1 MKS     -0.484100
     21 CAL         5.7830    0.5370   -7.2130 ca        1 MKS     -0.292000
     22 CBA         4.8380    0.5960   -6.1870 ca        1 MKS      0.221100
     23 OAQ         4.4340    1.8790   -5.8710 os        1 MKS     -0.222200
     24 CBB         3.4380    2.0250   -4.9200 ca        1 MKS      0.184100
     25 CAM         3.0390    3.3580   -4.7470 ca        1 MKS     -0.251000
     26 CAU         2.0330    3.6300   -3.8210 ca        1 MKS      0.164100
     27 OAH         1.5840    4.9020   -3.5810 oh        1 MKS     -0.481100
     28 CAY         1.4430    2.5800   -3.0770 ca        1 MKS      0.031100
     29 OAP         0.3560    2.8380   -2.2570 os        1 MKS     -0.324900
     30 CAA         0.6700    3.6160   -1.1000 c3        1 MKS      0.110700
     31 H1          0.1090    0.3360    1.5150 hc        1 MKS      0.041200
     32 H2         -0.0100    1.2830   -0.0290 hc        1 MKS      0.041200
     33 H3         -0.5780   -0.4380    0.0280 hc        1 MKS      0.041200
     34 H4          1.9180   -1.5020    1.6630 hc        1 MKS      0.041200
     35 H5          3.4090   -1.0240    0.7480 hc        1 MKS      0.041200
     36 H6          2.5940    0.1690    1.8440 hc        1 MKS      0.041200
     37 H7          2.9990   -0.5780   -1.5080 ha        1 MKS      0.134000
     38 H8          1.0140   -0.7200   -3.0880 hc        1 MKS      0.080700
     39 H9          0.1680    0.5630   -2.1320 hc        1 MKS      0.080700
     40 H10         3.8570   -2.8750   -4.6870 ho        1 MKS      0.467000
     41 H11         6.4840   -3.8740   -6.5060 hc        1 MKS      0.064200
     42 H12         7.3260   -3.1060   -7.9190 hc        1 MKS      0.064200
     43 H13         4.4250   -4.2260   -7.8260 ha        1 MKS      0.128000
     44 H14         3.6980   -5.2600   -9.8000 hc        1 MKS      0.040867
     45 H15         4.2240   -4.3160  -11.2570 hc        1 MKS      0.040867
     46 H16         5.0390   -5.8830  -10.8510 hc        1 MKS      0.040867
     47 H17         6.7050   -3.9690  -11.4330 hc        1 MKS      0.040867
     48 H18         7.6800   -4.4990  -10.0000 hc        1 MKS      0.040867
     49 H19         7.1030   -2.7840  -10.1180 hc        1 MKS      0.040867
     50 H20         7.4120    0.0370   -8.9250 ho        1 MKS      0.427000
     51 H21         6.1360    1.4590   -7.6940 ha        1 MKS      0.158000
     52 H22         3.5100    4.1550   -5.3380 ha        1 MKS      0.160000
     53 H23         2.0460    5.5050   -4.1840 ho        1 MKS      0.427000
     54 H24         1.0210    4.6330   -1.3980 h1        1 MKS      0.046367
     55 H25         1.4400    3.0990   -0.4780 h1        1 MKS      0.046367
     56 H26        -0.3060    3.6760   -0.5560 h1        1 MKS      0.046367
@<TRIPOS>BOND
     1    1    2 1   
     2    1   31 1   
     3    1   32 1   
     4    1   33 1   
     5    2    3 1   
     6    2    4 2   
     7    3   34 1   
     8    3   35 1   
     9    3   36 1   
    10    4    5 1   
    11    4   37 1   
    12    5    6 1   
    13    5   38 1   
    14    5   39 1   
    15    6    7 ar  
    16    6   28 ar  
    17    7    8 1   
    18    7   24 ar  
    19    8    9 2   
    20    8   10 1   
    21   10   11 ar  
    22   10   22 ar  
    23   11   12 1   
    24   11   13 ar  
    25   12   40 1   
    26   13   14 1   
    27   13   19 ar  
    28   14   15 1   
    29   14   41 1   
    30   14   42 1   
    31   15   16 2   
    32   15   43 1   
    33   16   17 1   
    34   16   18 1   
    35   17   44 1   
    36   17   45 1   
    37   17   46 1   
    38   18   47 1   
    39   18   48 1   
    40   18   49 1   
    41   19   20 1   
    42   19   21 ar  
    43   20   50 1   
    44   21   22 ar  
    45   21   51 1   
    46   22   23 1   
    47   23   24 1   
    48   24   25 ar  
    49   25   26 ar  
    50   25   52 1   
    51   26   27 1   
    52   26   28 ar  
    53   27   53 1   
    54   28   29 1   
    55   29   30 1   
    56   30   54 1   
    57   30   55 1   
    58   30   56 1   
@<TRIPOS>SUBSTRUCTURE
     1 MKS         1 TEMP              0 ****  ****    0 ROOT
