@<TRIPOS>MOLECULE
molecule
   53    55     1     0     0
SMALL
bcc


@<TRIPOS>ATOM
      1 CAA          0.0000     0.0000     0.0000 c3         1 MKT      -0.096900
      2 CAQ          1.5070     0.0000     0.0000 c2         1 MKT       0.042600
      3 CAB          2.2610     0.0000     1.3050 c3         1 MKT      -0.096900
      4 CAJ          2.1630    -0.0020    -1.1340 c2         1 MKT      -0.481200
      5 CAN          1.4090    -0.0030    -2.4400 c3         1 MKT      -0.029900
      6 CAW          1.8640     1.1590    -3.2830 ca         1 MKT      -0.113300
      7 CAV          1.2280     2.3830    -3.1770 ca         1 MKT       0.218100
      8 OAI          0.1950     2.5430    -2.3110 oh         1 MKT      -0.490100
      9 CAT          2.9280     1.0050    -4.1650 ca         1 MKT       0.202100
     10 OAG          3.5480    -0.1990    -4.2630 oh         1 MKT      -0.485100
     11 CAM          3.3630     2.0650    -4.9450 ca         1 MKT      -0.243000
     12 CAZ          2.7360     3.3000    -4.8570 ca         1 MKT       0.202100
     13 OAP          3.1700     4.3290    -5.6110 os         1 MKT      -0.217200
     14 CBB          1.6580     3.4550    -3.9680 ca         1 MKT      -0.279600
     15 CAY          0.9880     4.7670    -3.9000 c          1 MKT       0.585300
     16 OAE          0.2060     5.0460    -3.0090 o          1 MKT      -0.469100
     17 CBC          1.3240     5.7210    -4.9770 ca         1 MKT      -0.198600
     18 CBA          2.4210     5.4340    -5.8070 ca         1 MKT       0.174100
     19 CAL          2.7390     6.3170    -6.8310 ca         1 MKT      -0.197000
     20 CAS          1.9880     7.4630    -7.0210 ca         1 MKT       0.114100
     21 OAF          2.3080     8.3190    -8.0250 oh         1 MKT      -0.514100
     22 CAU          0.9030     7.7470    -6.1890 ca         1 MKT       0.052100
     23 OAH          0.1710     8.8770    -6.3870 oh         1 MKT      -0.512100
     24 CAX          0.5660     6.8770    -5.1730 ca         1 MKT      -0.033300
     25 CAO         -0.6040     7.1770    -4.2730 c3         1 MKT      -0.048900
     26 CAK         -0.1110     7.8330    -3.0100 c2         1 MKT      -0.448200
     27 CAR         -0.6070     8.9870    -2.6330 c2         1 MKT       0.017600
     28 CAD         -1.5730     9.7190    -3.5290 c3         1 MKT      -0.091400
     29 CAC         -0.2130     9.5790    -1.3050 c3         1 MKT      -0.091400
     30 H1          -0.3610    -0.7810    -0.6590 hc         1 MKT       0.053367
     31 H2          -0.3610    -0.1800     1.0050 hc         1 MKT       0.053367
     32 H3          -0.3610     0.9610    -0.3470 hc         1 MKT       0.053367
     33 H4           2.0620    -0.9230     1.8370 hc         1 MKT       0.053367
     34 H5           3.3230     0.0820     1.1090 hc         1 MKT       0.053367
     35 H6           1.9390     0.8410     1.9080 hc         1 MKT       0.053367
     36 H7           1.6990    -0.8780    -1.5720 ha         1 MKT       0.323000
     37 H8           0.3470     0.0870    -2.2440 hc         1 MKT       0.039200
     38 H9           1.6010    -0.9290    -2.9680 hc         1 MKT       0.039200
     39 H10         -0.6200     2.4110    -2.7670 ho         1 MKT       0.425000
     40 H11          3.7230    -0.3900    -5.1690 ho         1 MKT       0.421000
     41 H12          4.1930     1.9280    -5.6270 ha         1 MKT       0.152000
     42 H13          3.5670     6.0980    -7.4950 ha         1 MKT       0.157000
     43 H14          3.2090     8.5850    -7.9370 ho         1 MKT       0.436000
     44 H15         -0.0510     8.9520    -7.3010 ho         1 MKT       0.436000
     45 H16         -1.1150     6.2550    -4.0250 hc         1 MKT       0.078200
     46 H17         -1.2890     7.8440    -4.7820 hc         1 MKT       0.078200
     47 H18          0.2770     8.1070    -3.9830 ha         1 MKT       0.322000
     48 H21         -1.9470    10.5960    -3.0160 hc         1 MKT       0.051200
     49 H22         -1.0660    10.0210    -4.4370 hc         1 MKT       0.051200
     50 H23         -2.4010     9.0660    -3.7780 hc         1 MKT       0.051200
     51 H24          0.5370     8.9520    -0.8380 hc         1 MKT       0.051200
     52 H25          0.1910    10.5730    -1.4580 hc         1 MKT       0.051200
     53 H26         -1.0840     9.6390    -0.6640 hc         1 MKT       0.051200
@<TRIPOS>BOND
     1    29    27 1
     2    28    27 1
     3    27    26 2
     4    26    25 1
     5    23    22 1
     6    25    24 1
     7    22    24 ar
     8    22    20 ar
     9    24    17 ar
    10    21    20 1
    11    20    19 ar
    12    16    15 2
    13    17    15 1
    14    17    18 ar
    15    15    14 1
    16    19    18 ar
    17    18    13 1
    18     8     7 1
    19    14     7 ar
    20    14    12 ar
    21     7     6 ar
    22    13    12 1
    23    12    11 ar
    24     6     5 1
    25     6     9 ar
    26     5     4 1
    27    11     9 ar
    28     4     2 2
    29     9    10 1
    30     2     3 1
    31     2     1 1
    32     1    30 1
    33     1    31 1
    34     1    32 1
    35     3    33 1
    36     3    34 1
    37     3    35 1
    38     4    36 1
    39     5    37 1
    40     5    38 1
    41     8    39 1
    42    10    40 1
    43    11    41 1
    44    19    42 1
    45    21    43 1
    46    23    44 1
    47    25    45 1
    48    25    46 1
    49    26    47 1
    50    28    48 1
    51    28    49 1
    52    28    50 1
    53    29    51 1
    54    29    52 1
    55    29    53 1
@<TRIPOS>SUBSTRUCTURE
     1 MKT         1 TEMP              0 ****  ****    0 ROOT
