@<TRIPOS>MOLECULE
MKT
   53    55     1     0     0
SMALL
bcc


@<TRIPOS>ATOM
      1 CAA         0.2690    0.3060    0.3190 c3        1 MKT     -0.061400
      2 CAQ         1.6960    0.0140    0.0340 c2        1 MKT     -0.111400
      3 CAB         2.5760   -0.0840    1.2250 c3        1 MKT     -0.061400
      4 CAJ         2.1800   -0.1570   -1.2050 c2        1 MKT     -0.174200
      5 CAN         1.3760   -0.1080   -2.4530 c3        1 MKT      0.020100
      6 CAW         1.7590    1.0490   -3.3120 ca        1 MKT     -0.172300
      7 CAV         0.9780    2.2260   -3.3430 ca        1 MKT      0.265100
      8 OAI        -0.1230    2.1920   -2.5400 oh        1 MKT     -0.497100
      9 CAT         2.9100    0.9920   -4.1170 ca        1 MKT      0.214100
     10 OAG         3.6430   -0.1670   -4.0680 oh        1 MKT     -0.482100
     11 CAM         3.2930    2.0610   -4.9380 ca        1 MKT     -0.294000
     12 CAZ         2.4960    3.2090   -4.9390 ca        1 MKT      0.224100
     13 OAP         2.9570    4.2060   -5.7770 os        1 MKT     -0.221200
     14 CBB         1.3310    3.3330   -4.1600 ca        1 MKT     -0.334600
     15 CAY         0.5470    4.5700   -4.2150 c         1 MKT      0.625300
     16 OAE        -0.4880    4.7070   -3.5370 o         1 MKT     -0.588100
     17 CBC         1.0520    5.6250   -5.1120 ca        1 MKT     -0.206600
     18 CBA         2.2250    5.3800   -5.8460 ca        1 MKT      0.158100
     19 CAL         2.7770    6.3140   -6.7370 ca        1 MKT     -0.219000
     20 CAS         2.1210    7.5300   -6.8930 ca        1 MKT      0.105100
     21 OAF         2.5640    8.5190   -7.7420 oh        1 MKT     -0.508100
     22 CAU         0.9400    7.8110   -6.1700 ca        1 MKT      0.069100
     23 OAH         0.2740    9.0080   -6.3230 oh        1 MKT     -0.491100
     24 CAX         0.4020    6.8710   -5.2720 ca        1 MKT      0.028700
     25 CAO        -0.8480    7.2430   -4.5410 c3        1 MKT     -0.008900
     26 CAK        -0.5640    7.6720   -3.1480 c2        1 MKT     -0.168200
     27 CAR        -0.7490    8.9100   -2.6660 c2        1 MKT     -0.111400
     28 CAD        -1.2400   10.0440   -3.4860 c3        1 MKT     -0.062400
     29 CAC        -0.4730    9.2270   -1.2420 c3        1 MKT     -0.062400
     30 H1         -0.1130    1.1110   -0.3610 hc        1 MKT      0.041867
     31 H2          0.1310    0.6420    1.3750 hc        1 MKT      0.041867
     32 H3         -0.3530   -0.6100    0.1590 hc        1 MKT      0.041867
     33 H4          3.6220   -0.3610    0.9460 hc        1 MKT      0.041867
     34 H5          2.6020    0.8970    1.7620 hc        1 MKT      0.041867
     35 H6          2.1820   -0.8580    1.9310 hc        1 MKT      0.041867
     36 H7          3.2520   -0.3580   -1.3680 ha        1 MKT      0.123000
     37 H8          1.5620   -1.0580   -3.0300 hc        1 MKT      0.064200
     38 H9          0.2760   -0.0610   -2.2260 hc        1 MKT      0.064200
     39 H10        -0.6270    3.0200   -2.6000 ho        1 MKT      0.467000
     40 H11         4.3880   -0.0790   -4.6840 ho        1 MKT      0.427000
     41 H12         4.1920    2.0110   -5.5650 ha        1 MKT      0.158000
     42 H13         3.6980    6.0750   -7.2860 ha        1 MKT      0.160000
     43 H14         3.3810    8.2120   -8.1620 ho        1 MKT      0.438000
     44 H15         0.7670    9.5480   -6.9600 ho        1 MKT      0.437000
     45 H16        -1.3810    8.0570   -5.1070 hc        1 MKT      0.077700
     46 H17        -1.5440    6.3570   -4.5110 hc        1 MKT      0.077700
     47 H18        -0.1970    6.8620   -2.4930 ha        1 MKT      0.132000
     48 H21        -1.0930   11.0170   -2.9550 hc        1 MKT      0.042033
     49 H22        -2.3330    9.9230   -3.6960 hc        1 MKT      0.042033
     50 H23        -0.6990   10.0910   -4.4650 hc        1 MKT      0.042033
     51 H24        -0.1600    8.3210   -0.6680 hc        1 MKT      0.042033
     52 H25        -1.3890    9.6520   -0.7600 hc        1 MKT      0.042033
     53 H26         0.3430    9.9890   -1.1720 hc        1 MKT      0.042033
@<TRIPOS>BOND
     1    1    2 1   
     2    1   30 1   
     3    1   31 1   
     4    1   32 1   
     5    2    3 1   
     6    2    4 2   
     7    3   33 1   
     8    3   34 1   
     9    3   35 1   
    10    4    5 1   
    11    4   36 1   
    12    5    6 1   
    13    5   37 1   
    14    5   38 1   
    15    6    7 ar  
    16    6    9 ar  
    17    7    8 1   
    18    7   14 ar  
    19    8   39 1   
    20    9   10 1   
    21    9   11 ar  
    22   10   40 1   
    23   11   12 ar  
    24   11   41 1   
    25   12   13 1   
    26   12   14 ar  
    27   13   18 1   
    28   14   15 1   
    29   15   16 2   
    30   15   17 1   
    31   17   18 ar  
    32   17   24 ar  
    33   18   19 ar  
    34   19   20 ar  
    35   19   42 1   
    36   20   21 1   
    37   20   22 ar  
    38   21   43 1   
    39   22   23 1   
    40   22   24 ar  
    41   23   44 1   
    42   24   25 1   
    43   25   26 1   
    44   25   45 1   
    45   25   46 1   
    46   26   27 2   
    47   26   47 1   
    48   27   28 1   
    49   27   29 1   
    50   28   48 1   
    51   28   49 1   
    52   28   50 1   
    53   29   51 1   
    54   29   52 1   
    55   29   53 1   
@<TRIPOS>SUBSTRUCTURE
     1 MKT         1 TEMP              0 ****  ****    0 ROOT
