@<TRIPOS>MOLECULE
molecule
   56    59     1     0     0
SMALL
bcc


@<TRIPOS>ATOM
      1 CAB          0.0000     0.0000     0.0000 c3         1 MKU      -0.099400
      2 CAR          1.5070     0.0000     0.0000 c2         1 MKU       0.028600
      3 CAC          2.2600     0.0000     1.3060 c3         1 MKU      -0.099400
      4 CAK          2.1620    -0.0010    -1.1340 c2         1 MKU      -0.479200
      5 CAN          1.4150     0.1360    -2.4360 c3         1 MKU      -0.055900
      6 CAW          2.0050     1.2660    -3.2380 ca         1 MKU       0.053700
      7 CBC          3.0480     1.0230    -4.1320 ca         1 MKU      -0.227600
      8 CAY          3.5860    -0.3400    -4.3200 c          1 MKU       0.606300
      9 OAF          3.3190    -1.2520    -3.5570 o          1 MKU      -0.520100
     10 CBB          4.4660    -0.5300    -5.4870 ca         1 MKU      -0.295600
     11 CAT          4.8200    -1.8100    -5.9260 ca         1 MKU       0.224100
     12 OAH          4.3660    -2.9060    -5.2660 oh         1 MKU      -0.498100
     13 CAV          5.6350    -1.9570    -7.0380 ca         1 MKU      -0.224300
     14 CAI          5.9980    -3.3500    -7.4860 c3         1 MKU      -0.017100
     15 CAJ          6.5080    -3.3090    -8.9290 c3         1 MKU      -0.111400
     16 CBD          7.5490    -2.1870    -9.0410 c3         1 MKU       0.150800
     17 CAD          8.1640    -2.1910   -10.4410 c3         1 MKU      -0.097600
     18 CAE          8.6460    -2.3970    -7.9950 c3         1 MKU      -0.097600
     19 OAP          6.8930    -0.9400    -8.8060 os         1 MKU      -0.317900
     20 CAU          6.1000    -0.8350    -7.7080 ca         1 MKU       0.220100
     21 CAM          5.7570     0.4390    -7.2680 ca         1 MKU      -0.207000
     22 CBA          4.9440     0.6080    -6.1580 ca         1 MKU       0.210100
     23 OAQ          4.6280     1.8490    -5.7350 os         1 MKU      -0.215200
     24 CAZ          3.6090     2.0720    -4.8800 ca         1 MKU       0.183100
     25 CAL          3.1030     3.3570    -4.7250 ca         1 MKU      -0.209000
     26 CAS          2.0670     3.5930    -3.8390 ca         1 MKU       0.153100
     27 OAG          1.5800     4.8530    -3.6950 oh         1 MKU      -0.504100
     28 CAX          1.5140     2.5480    -3.0960 ca         1 MKU       0.057100
     29 OAO          0.4940     2.7930    -2.2290 os         1 MKU      -0.345900
     30 CAA          0.8510     3.1320    -0.8880 c3         1 MKU       0.125700
     31 H1          -0.3610    -0.9190    -0.4460 hc         1 MKU       0.053867
     32 H2          -0.3610     0.8460    -0.5730 hc         1 MKU       0.053867
     33 H3          -0.3610     0.0730     1.0190 hc         1 MKU       0.053867
     34 H4           1.9510    -0.8510     1.9010 hc         1 MKU       0.053867
     35 H5           3.3230    -0.0640     1.1100 hc         1 MKU       0.053867
     36 H6           2.0470     0.9150     1.8460 hc         1 MKU       0.053867
     37 H7           1.6980    -0.8530    -1.6160 ha         1 MKU       0.332000
     38 H8           0.3710     0.3420    -2.2340 hc         1 MKU       0.059700
     39 H9           1.4980    -0.7870    -2.9980 hc         1 MKU       0.059700
     40 H10          3.5110    -3.1370    -5.5900 ho         1 MKU       0.428000
     41 H11          6.7750    -3.7440    -6.8420 hc         1 MKU       0.059700
     42 H12          5.1220    -3.9840    -7.4330 hc         1 MKU       0.059700
     43 H13          5.6830    -3.1070    -9.6010 hc         1 MKU       0.058200
     44 H14          6.9670    -4.2580    -9.1800 hc         1 MKU       0.058200
     45 H15          7.3780    -2.0920   -11.1810 hc         1 MKU       0.049700
     46 H16          8.8540    -1.3620   -10.5350 hc         1 MKU       0.049700
     47 H17          8.6940    -3.1220   -10.6000 hc         1 MKU       0.049700
     48 H18          9.4960    -1.7700    -8.2320 hc         1 MKU       0.049700
     49 H19          8.2660    -2.1350    -7.0150 hc         1 MKU       0.049700
     50 H20          8.9530    -3.4360    -7.9970 hc         1 MKU       0.049700
     51 H21          6.1300     1.3080    -7.7970 ha         1 MKU       0.163000
     52 H22          3.5280     4.1770    -5.2900 ha         1 MKU       0.157000
     53 H23          1.1770     5.1280    -4.5010 ho         1 MKU       0.427000
     54 H24          0.0830     2.7780    -0.2100 h1         1 MKU       0.042367
     55 H25          1.7960     2.6660    -0.6370 h1         1 MKU       0.042367
     56 H26          0.9430     4.2070    -0.7990 h1         1 MKU       0.042367
@<TRIPOS>BOND
     1     1     2 1
     2     3     2 1
     3     2     4 2
     4    30    29 1
     5     4     5 1
     6    29    28 1
     7     5     6 1
     8    28     6 ar
     9    28    26 ar
    10     6     7 ar
    11    27    26 1
    12     9     8 2
    13    26    25 ar
    14     7     8 1
    15     7    24 ar
    16     8    10 1
    17    25    24 ar
    18    24    23 1
    19    12    11 1
    20    10    11 ar
    21    10    22 ar
    22    11    13 ar
    23    23    22 1
    24    22    21 ar
    25    13    14 1
    26    13    20 ar
    27    14    15 1
    28    21    20 ar
    29    20    19 1
    30    15    16 1
    31    19    16 1
    32    16    18 1
    33    16    17 1
    34     1    31 1
    35     1    32 1
    36     1    33 1
    37     3    34 1
    38     3    35 1
    39     3    36 1
    40     4    37 1
    41     5    38 1
    42     5    39 1
    43    12    40 1
    44    14    41 1
    45    14    42 1
    46    15    43 1
    47    15    44 1
    48    17    45 1
    49    17    46 1
    50    17    47 1
    51    18    48 1
    52    18    49 1
    53    18    50 1
    54    21    51 1
    55    25    52 1
    56    27    53 1
    57    30    54 1
    58    30    55 1
    59    30    56 1
@<TRIPOS>SUBSTRUCTURE
     1 MKU         1 TEMP              0 ****  ****    0 ROOT
