@<TRIPOS>MOLECULE
MKU
   56    59     1     0     0
SMALL
bcc


@<TRIPOS>ATOM
      1 CAB         0.2670    0.3100    0.4650 c3        1 MKU     -0.060400
      2 CAR         1.5920   -0.1860    0.0180 c2        1 MKU     -0.122400
      3 CAC         2.4950   -0.6520    1.1000 c3        1 MKU     -0.060400
      4 CAK         1.9700   -0.2310   -1.2680 c2        1 MKU     -0.160200
      5 CAN         1.1230    0.1660   -2.4210 c3        1 MKU     -0.017900
      6 CAW         1.7870    1.2010   -3.2720 ca        1 MKU      0.050700
      7 CBC         2.7680    0.8800   -4.2410 ca        1 MKU     -0.232600
      8 CAY         3.2310   -0.4950   -4.4880 c         1 MKU      0.625300
      9 OAF         2.8340   -1.4690   -3.8200 o         1 MKU     -0.594100
     10 CBB         4.2020   -0.6660   -5.5710 ca        1 MKU     -0.335600
     11 CAT         4.7030   -1.9310   -5.9680 ca        1 MKU      0.264100
     12 OAH         4.3390   -3.1180   -5.4030 oh        1 MKU     -0.501100
     13 CAV         5.6420   -2.0550   -7.0140 ca        1 MKU     -0.229300
     14 CAI         6.1390   -3.3940   -7.4200 c3        1 MKU     -0.014100
     15 CAJ         6.7790   -3.3490   -8.7900 c3        1 MKU     -0.102400
     16 CBD         7.7020   -2.1440   -8.9480 c3        1 MKU      0.153800
     17 CAD         8.1670   -2.0150  -10.3950 c3        1 MKU     -0.104100
     18 CAE         8.8970   -2.2190   -8.0100 c3        1 MKU     -0.104100
     19 OAP         6.9940   -0.9010   -8.6970 os        1 MKU     -0.318900
     20 CAU         6.0960   -0.8960   -7.6600 ca        1 MKU      0.227100
     21 CAM         5.6220    0.3780   -7.2990 ca        1 MKU     -0.236000
     22 CBA         4.6850    0.4590   -6.2680 ca        1 MKU      0.211100
     23 OAQ         4.2800    1.7500   -5.9830 os        1 MKU     -0.220200
     24 CAZ         3.3160    1.9240   -5.0060 ca        1 MKU      0.187100
     25 CAL         2.9350    3.2650   -4.8480 ca        1 MKU     -0.252000
     26 CAS         1.9620    3.5660   -3.8970 ca        1 MKU      0.163100
     27 OAG         1.5330    4.8480   -3.6700 oh        1 MKU     -0.481100
     28 CAX         1.3870    2.5380   -3.1120 ca        1 MKU      0.029100
     29 OAO         0.3310    2.8260   -2.2610 os        1 MKU     -0.325900
     30 CAA         0.6930    3.6230   -1.1320 c3        1 MKU      0.110700
     31 H1          0.0530    1.3180    0.0230 hc        1 MKU      0.040533
     32 H2          0.2240    0.3980    1.5780 hc        1 MKU      0.040533
     33 H3         -0.5410   -0.3910    0.1380 hc        1 MKU      0.040533
     34 H4          2.0030   -1.4720    1.6820 hc        1 MKU      0.040533
     35 H5          2.7170    0.1890    1.8030 hc        1 MKU      0.040533
     36 H6          3.4620   -1.0390    0.6950 hc        1 MKU      0.040533
     37 H7          2.9640   -0.6210   -1.5500 ha        1 MKU      0.133000
     38 H8          0.9120   -0.7510   -3.0420 hc        1 MKU      0.080700
     39 H9          0.1280    0.5600   -2.0710 hc        1 MKU      0.080700
     40 H10         3.6740   -2.9810   -4.7060 ho        1 MKU      0.467000
     41 H11         5.2860   -4.1270   -7.4250 hc        1 MKU      0.062700
     42 H12         6.8770   -3.7600   -6.6560 hc        1 MKU      0.062700
     43 H13         7.3710   -4.2840   -8.9650 hc        1 MKU      0.058700
     44 H14         5.9800   -3.2950   -9.5760 hc        1 MKU      0.058700
     45 H15         8.7630   -2.9170  -10.6680 hc        1 MKU      0.050200
     46 H16         8.7990   -1.1040  -10.5140 hc        1 MKU      0.050200
     47 H17         7.2880   -1.9310  -11.0780 hc        1 MKU      0.050200
     48 H18         9.5560   -1.3300   -8.1600 hc        1 MKU      0.050200
     49 H19         9.4810   -3.1460   -8.2170 hc        1 MKU      0.050200
     50 H20         8.5550   -2.2320   -6.9470 hc        1 MKU      0.050200
     51 H21         5.9780    1.2780   -7.8160 ha        1 MKU      0.171000
     52 H22         3.3960    4.0440   -5.4710 ha        1 MKU      0.160000
     53 H23         1.9820    5.4330   -4.3010 ho        1 MKU      0.426000
     54 H24         1.4820    3.1130   -0.5290 h1        1 MKU      0.046367
     55 H25        -0.2620    3.7030   -0.5540 h1        1 MKU      0.046367
     56 H26         1.0420    4.6310   -1.4630 h1        1 MKU      0.046367
@<TRIPOS>BOND
     1    1    2 1   
     2    1   31 1   
     3    1   32 1   
     4    1   33 1   
     5    2    3 1   
     6    2    4 2   
     7    3   34 1   
     8    3   35 1   
     9    3   36 1   
    10    4    5 1   
    11    4   37 1   
    12    5    6 1   
    13    5   38 1   
    14    5   39 1   
    15    6    7 ar  
    16    6   28 ar  
    17    7    8 1   
    18    7   24 ar  
    19    8    9 2   
    20    8   10 1   
    21   10   11 ar  
    22   10   22 ar  
    23   11   12 1   
    24   11   13 ar  
    25   12   40 1   
    26   13   14 1   
    27   13   20 ar  
    28   14   15 1   
    29   14   41 1   
    30   14   42 1   
    31   15   16 1   
    32   15   43 1   
    33   15   44 1   
    34   16   17 1   
    35   16   18 1   
    36   16   19 1   
    37   17   45 1   
    38   17   46 1   
    39   17   47 1   
    40   18   48 1   
    41   18   49 1   
    42   18   50 1   
    43   19   20 1   
    44   20   21 ar  
    45   21   22 ar  
    46   21   51 1   
    47   22   23 1   
    48   23   24 1   
    49   24   25 ar  
    50   25   26 ar  
    51   25   52 1   
    52   26   27 1   
    53   26   28 ar  
    54   27   53 1   
    55   28   29 1   
    56   29   30 1   
    57   30   54 1   
    58   30   55 1   
    59   30   56 1   
@<TRIPOS>SUBSTRUCTURE
     1 MKU         1 TEMP              0 ****  ****    0 ROOT
