@<TRIPOS>MOLECULE
molecule
   35    36     1     0     0
SMALL
bcc


@<TRIPOS>ATOM
      1 C1           0.0000     0.0000     0.0000 c3         1 MKY      -0.096100
      2 C2           1.5300     0.0000     0.0000 c3         1 MKY       0.146400
      3 O3           2.0150     0.0000     1.3680 os         1 MKY      -0.422900
      4 C4           3.3460    -0.0000     1.5430 c          1 MKY       0.611100
      5 O5           4.0810    -0.0010     0.5840 o          1 MKY      -0.531000
      6 C6           3.9230    -0.0010     2.9360 c3         1 MKY      -0.013700
      7 C8           7.8040     3.4090     2.7310 ca         1 MKY       0.128100
      8 C9           6.4280     3.5800     2.8040 ca         1 MKY      -0.105000
      9 C10          5.5860     2.4940     2.8480 ca         1 MKY      -0.105000
     10 C11          6.0960     1.1870     2.8210 ca         1 MKY      -0.031200
     11 N12          5.3860    -0.0010     2.8590 na         1 MKY      -0.115300
     12 C13          6.0800    -1.1630     2.8220 cc         1 MKY       0.609700
     13 N14          5.5820    -2.3900     2.8480 nf         1 MKY      -0.830000
     14 C15          6.4070    -3.4520     2.8050 cf         1 MKY       0.738200
     15 N16          5.8880    -4.7310     2.8330 nz         1 MKY      -0.779600
     16 N17          7.7040    -3.2720     2.7370 n2         1 MKY      -0.851100
     17 S18          7.7890    -0.7090     2.7320 ss         1 MKY       0.080900
     18 C19          7.4800     1.0330     2.7480 ca         1 MKY      -0.069100
     19 C20          8.3280     2.1270     2.6980 ca         1 MKY      -0.086000
     20 H1          -0.3610     0.8040     0.6300 hc         1 MKY       0.055033
     21 H1A         -0.3610    -0.9480     0.3810 hc         1 MKY       0.055033
     22 H1B         -0.3610     0.1440    -1.0110 hc         1 MKY       0.055033
     23 H2           1.8910     0.8840    -0.5110 h1         1 MKY       0.054200
     24 H2A          1.8910    -0.8840    -0.5110 h1         1 MKY       0.054200
     25 H6           3.5890     0.8840     3.4650 h1         1 MKY       0.107200
     26 H6A          3.5890    -0.8850     3.4640 h1         1 MKY       0.107200
     27 HO7          8.7950     4.7210     1.7890 ho         1 MKY       0.436000
     28 H9           6.0140     4.5810     2.8270 ha         1 MKY       0.167000
     29 H10          4.5150     2.6500     2.9040 ha         1 MKY       0.146000
     30 HN16         6.1160    -5.2030     1.9800 hn         1 MKY       0.466800
     31 HN1A         6.2780    -5.2330     3.6060 hn         1 MKY       0.466800
     32 HN17         8.3190    -4.0620     2.7050 hn         1 MKY       0.424400
     33 H20          9.4020     1.9800     2.6940 ha         1 MKY       0.165000
     34 H163         4.8930    -4.6860     2.9370 hn         1 MKY       0.466800
     35 O7           8.6290     4.4890     2.6870 oh         1 MKY      -0.505100
@<TRIPOS>BOND
     1     1     2 1
     2     1    20 1
     3     1    21 1
     4     1    22 1
     5     3     2 1
     6     2    23 1
     7     2    24 1
     8     3     4 1
     9     6     4 1
    10     4     5 2
    11     6    11 1
    12     6    25 1
    13     6    26 1
    14     7    35 1
    15    35    27 1
    16     8     7 ar
    17    19     7 ar
    18     9     8 ar
    19     8    28 1
    20    10     9 ar
    21     9    29 1
    22    11    10 1
    23    10    18 ar
    24    12    11 1
    25    13    12 2
    26    12    17 1
    27    14    13 1
    28    16    14 2
    29    14    15 1
    30    15    30 1
    31    15    31 1
    32    16    32 1
    33    17    18 1
    34    18    19 ar
    35    19    33 1
    36    34    15 1
@<TRIPOS>SUBSTRUCTURE
     1 MKY         1 TEMP              0 ****  ****    0 ROOT
