@<TRIPOS>MOLECULE
molecule
   60    63     1     0     0
SMALL
bcc


@<TRIPOS>ATOM
      1 O38          0.0000     0.0000     0.0000 o          1 ML0      -0.775300
      2 C36          1.3420     0.0000     0.0000 c          1 ML0       0.867600
      3 O37          1.9460     0.0000    -1.0470 o          1 ML0      -0.775300
      4 C34          2.0970     0.0000     1.3040 c3         1 ML0      -0.012500
      5 N35          3.4690    -0.4740     1.0760 nz         1 ML0      -0.790600
      6 C33          2.1360     1.4200     1.8710 c3         1 ML0      -0.043100
      7 C30          2.7810     1.4000     3.2320 ca         1 ML0      -0.107300
      8 C29          4.1510     1.5640     3.3480 ca         1 ML0      -0.148000
      9 C28          4.7480     1.5460     4.5920 ca         1 ML0      -0.083500
     10 C31          2.0030     1.2230     4.3620 ca         1 ML0      -0.148000
     11 C32          2.5900     1.2040     5.6110 ca         1 ML0      -0.083500
     12 C27          3.9690     1.3640     5.7340 cp         1 ML0      -0.152500
     13 C22          4.6050     1.3440     7.0730 cp         1 ML0       0.551800
     14 C21          5.9830     1.5020     7.2030 ca         1 ML0      -0.392600
     15 N23          3.8660     1.1800     8.1700 nb         1 ML0      -0.770000
     16 C24          4.4270     1.1610     9.3680 ca         1 ML0       0.982900
     17 N26          3.6270     0.9900    10.4850 nv         1 ML0      -1.057500
     18 N25          5.7350     1.3030     9.5280 nb         1 ML0      -0.827000
     19 C20          6.5340     1.4760     8.4810 ca         1 ML0       0.695600
     20 O16          7.8700     1.6260     8.6560 os         1 ML0      -0.416100
     21 C14          8.3570     1.5880     9.9990 c3         1 ML0       0.154400
     22 C15          8.7040     0.1460    10.3750 c3         1 ML0       0.601900
     23 F19          9.6900    -0.3370     9.5070 f          1 ML0      -0.218633
     24 F18          9.1820     0.1090    11.6900 f          1 ML0      -0.218633
     25 F17          7.5600    -0.6520    10.2710 f          1 ML0      -0.218633
     26 C11          9.5900     2.4470    10.1110 ca         1 ML0      -0.117300
     27 C10          9.8320     3.1570    11.2720 ca         1 ML0      -0.089000
     28 C9          10.9610     3.9460    11.3800 ca         1 ML0      -0.121500
     29 C12         10.4780     2.5190     9.0530 ca         1 ML0      -0.089000
     30 C13         11.6100     3.3040     9.1500 ca         1 ML0      -0.121500
     31 C8          11.8550     4.0260    10.3160 cp         1 ML0      -0.016000
     32 C3          13.0700     4.8720    10.4260 cp         1 ML0      -0.016000
     33 C2          13.9650     4.9510     9.3620 ca         1 ML0      -0.133000
     34 C4          13.3160     5.5930    11.5920 ca         1 ML0      -0.159000
     35 C5          14.4480     6.3790    11.6890 ca         1 ML0       0.136900
     36 F7          14.6890     7.0790    12.8180 f          1 ML0      -0.138900
     37 C6          15.3380     6.4480    10.6290 ca         1 ML0      -0.163000
     38 C1          15.0940     5.7380     9.4680 ca         1 ML0      -0.101000
     39 H34          1.6010    -0.6570     2.0080 hx         1 ML0       0.106700
     40 HN35         3.4500    -1.2730     0.4740 hn         1 ML0       0.440467
     41 HN3A         3.8840    -0.7260     1.9510 hn         1 ML0       0.440467
     42 H33          2.7090     2.0580     1.2090 hc         1 ML0       0.093200
     43 H33A         1.1260     1.8030     1.9560 hc         1 ML0       0.093200
     44 H29          4.7510     1.7400     2.4630 ha         1 ML0       0.137500
     45 H28          5.8260     1.6060     4.6770 ha         1 ML0       0.153500
     46 H31          0.9310     1.1040     4.2660 ha         1 ML0       0.137500
     47 H32          1.9870     1.0080     6.4900 ha         1 ML0       0.153500
     48 H21          6.6110     1.6410     6.3310 ha         1 ML0       0.157000
     49 HN26         3.3240     1.7860    11.0100 hn         1 ML0       0.450800
     50 HN2A         3.3530     0.0700    10.7680 hn         1 ML0       0.450800
     51 H14          7.5940     1.9620    10.6700 h1         1 ML0       0.114700
     52 H10          9.1360     3.0940    12.1000 ha         1 ML0       0.143500
     53 H9          11.1480     4.5030    12.2900 ha         1 ML0       0.141000
     54 H12         10.2860     1.9570     8.1460 ha         1 ML0       0.143500
     55 H13         12.3040     3.3610     8.3190 ha         1 ML0       0.141000
     56 H2          13.7750     4.3950     8.4510 ha         1 ML0       0.137000
     57 H4          12.6610     5.4780    12.4480 ha         1 ML0       0.148000
     58 H6          16.2250     7.0650    10.7090 ha         1 ML0       0.147000
     59 H1          15.7920     5.7980     8.6410 ha         1 ML0       0.139000
     60 H353         4.0050     0.2510     0.6420 hn         1 ML0       0.440467
@<TRIPOS>BOND
     1     2     1 1
     2     3     2 1
     3     2     4 1
     4     6     4 1
     5     4     5 1
     6     4    39 1
     7     5    40 1
     8     5    41 1
     9     6     7 1
    10     6    42 1
    11     6    43 1
    12    10     7 ar
    13     7     8 ar
    14     8     9 ar
    15     8    44 1
    16    12     9 ar
    17     9    45 1
    18    10    11 ar
    19    10    46 1
    20    11    12 ar
    21    11    47 1
    22    12    13 1
    23    15    13 ar
    24    13    14 ar
    25    14    19 ar
    26    14    48 1
    27    15    16 ar
    28    17    16 1
    29    16    18 ar
    30    17    49 1
    31    17    50 1
    32    18    19 ar
    33    19    20 1
    34    20    21 1
    35    26    21 1
    36    21    22 1
    37    21    51 1
    38    22    23 1
    39    22    25 1
    40    22    24 1
    41    29    26 ar
    42    26    27 ar
    43    28    27 ar
    44    27    52 1
    45    31    28 ar
    46    28    53 1
    47    30    29 ar
    48    29    54 1
    49    30    31 ar
    50    30    55 1
    51    32    31 1
    52    33    32 ar
    53    32    34 ar
    54    38    33 ar
    55    33    56 1
    56    35    34 ar
    57    34    57 1
    58    37    35 ar
    59    35    36 1
    60    38    37 ar
    61    37    58 1
    62    38    59 1
    63    60     5 1
@<TRIPOS>SUBSTRUCTURE
     1 ML0         1 TEMP              0 ****  ****    0 ROOT
