@<TRIPOS>MOLECULE
ML1
   33    34     1     0     0
SMALL
bcc


@<TRIPOS>ATOM
      1 C1           0.0000     0.0000     0.0000 c3         1 ML1       0.046000
      2 C2           2.3880     1.0750     2.1420 cc         1 ML1      -0.252100
      3 C3           2.4490    -5.5940     4.0740 c3         1 ML1       0.244700
      4 C4          -1.8140     0.0010    -1.6270 c          1 ML1       0.569100
      5 C5          -2.3160     0.0010    -3.0480 c3         1 ML1      -0.068100
      6 C6           1.5300     0.0000     0.0000 c3         1 ML1       0.061800
      7 C8           2.2260    -1.1730     2.2770 ca         1 ML1      -0.051800
      8 C9           2.0330    -2.5450     2.0980 ca         1 ML1      -0.097000
      9 C12          3.0060    -1.5780     4.5270 ca         1 ML1      -0.058000
     10 C13          2.7150    -0.6850     3.5020 ca         1 ML1      -0.259200
     11 C7           2.0320     0.0000     1.4200 cd         1 ML1      -0.164400
     12 C10          2.3190    -3.4140     3.1320 ca         1 ML1       0.124100
     13 C11          2.7940    -2.9270     4.3470 ca         1 ML1      -0.183000
     14 N1          -0.4880     0.0000    -1.3810 ns         1 ML1      -0.207900
     15 N2           2.7980     0.6860     3.3870 na         1 ML1       0.357600
     16 O1           2.1350    -4.7510     2.9640 os         1 ML1      -0.308900
     17 O2          -2.6010     0.0010    -0.7060 o          1 ML1      -0.646100
     18 H11         -0.3610    -0.8850     0.5110 h1         1 ML1       0.030700
     19 H12A        -0.3610     0.8840     0.5110 h1         1 ML1       0.030700
     20 H2           2.3540     2.0990     1.7900 h4         1 ML1       0.140000
     21 H31          2.2580    -6.6270     3.8090 h1         1 ML1      -0.004300
     22 H32          1.8320    -5.3190     4.9220 h1         1 ML1      -0.004300
     23 H33          3.4940    -5.4750     4.3340 h1         1 ML1      -0.004300
     24 H51         -1.9540    -0.8840    -3.5590 hc         1 ML1       0.021033
     25 H52         -3.3990     0.0010    -3.0490 hc         1 ML1       0.021033
     26 H53         -1.9540     0.8850    -3.5590 hc         1 ML1       0.021033
     27 H61          1.8910     0.8840    -0.5110 hc         1 ML1       0.013700
     28 H62          1.8910    -0.8840    -0.5110 hc         1 ML1       0.013700
     29 H9           1.6640    -2.9250     1.1530 ha         1 ML1       0.116000
     30 H12          3.3750    -1.2100     5.4770 ha         1 ML1       0.097000
     31 H111         3.0150    -3.6170     5.1530 ha         1 ML1       0.118000
     32 HN1          0.1620     0.0030    -2.1410 hn         1 ML1       0.171500
     33 H16          3.1120     1.3050     4.1080 hn         1 ML1       0.112700
@<TRIPOS>BOND
     1     1     6 1   
     2     1    14 1   
     3     1    18 1   
     4     1    19 1   
     5     2    11 2   
     6     2    15 1   
     7     2    20 1   
     8     3    16 1   
     9     3    21 1   
    10     3    22 1   
    11     3    23 1   
    12     4     5 1   
    13     4    14 1   
    14     4    17 2   
    15     5    24 1   
    16     5    25 1   
    17     5    26 1   
    18     6    11 1   
    19     6    27 1   
    20     6    28 1   
    21     7     8 ar  
    22     7    10 ar  
    23     7    11 1   
    24     8    12 ar  
    25     8    29 1   
    26     9    10 ar  
    27     9    13 ar  
    28     9    30 1   
    29    10    15 1   
    30    12    13 ar  
    31    12    16 1   
    32    13    31 1   
    33    14    32 1   
    34    15    33 1   
@<TRIPOS>SUBSTRUCTURE
     1 ML1         1 TEMP              0 ****  ****    0 ROOT
