@<TRIPOS>MOLECULE
ML2
   33    34     1     0     0
SMALL
bcc


@<TRIPOS>ATOM
      1 C2           0.0000     0.0000     0.0000 cc         1 ML2      -0.001300
      2 C4           0.5930    -0.0000     2.1690 ca         1 ML2      -0.256200
      3 C5           0.6790    -0.0010     3.5570 ca         1 ML2      -0.057000
      4 C6           1.9120    -0.0010     4.1710 ca         1 ML2      -0.180000
      5 C9           4.2850    -0.0010     5.4640 c3         1 ML2       0.244700
      6 C12          1.3430     0.0000     0.0000 cd         1 ML2      -0.137400
      7 C13          2.2400     0.0010    -1.2110 c3         1 ML2       0.056800
      8 N15          3.4140     1.4450    -2.7980 ns         1 ML2      -0.204900
      9 C16          3.8140     2.6130    -3.3380 c          1 ML2       0.568100
     10 C18          4.7100     2.6140    -4.5500 c3         1 ML2      -0.068100
     11 I1          -1.2020    -0.0080    -1.7160 i          1 ML2      -0.185800
     12 N3          -0.4670    -0.0010     1.2870 na         1 ML2       0.373600
     13 C7           3.0800     0.0000     3.4130 ca         1 ML2       0.125100
     14 O8           4.2900     0.0000     4.0350 os         1 ML2      -0.308900
     15 C10          3.0160     0.0010     2.0340 ca         1 ML2      -0.094000
     16 C11          1.7710     0.0000     1.4020 ca         1 ML2      -0.052800
     17 C14          2.5420     1.4450    -1.6200 c3         1 ML2       0.045000
     18 O17          3.4510     3.6630    -2.8510 o          1 ML2      -0.648100
     19 H5          -0.2240    -0.0020     4.1550 ha         1 ML2       0.099000
     20 H6           1.9730    -0.0000     5.2520 ha         1 ML2       0.119000
     21 H91          3.7730     0.8830     5.8240 h1         1 ML2      -0.003967
     22 H92          5.3050    -0.0010     5.8280 h1         1 ML2      -0.003967
     23 H93          3.7730    -0.8860     5.8220 h1         1 ML2      -0.003967
     24 H131         3.1660    -0.5090    -0.9740 hc         1 ML2       0.019700
     25 H132         1.7440    -0.5100    -2.0270 hc         1 ML2       0.019700
     26 H15          3.6800     0.5790    -3.2240 hn         1 ML2       0.171500
     27 H181         4.9430     3.6350    -4.8260 hc         1 ML2       0.021033
     28 H182         4.2050     2.1230    -5.3730 hc         1 ML2       0.021033
     29 H183         5.6270     2.0840    -4.3210 hc         1 ML2       0.021033
     30 H3          -1.4330    -0.0010     1.5480 hn         1 ML2       0.119700
     31 H10          3.9260     0.0010     1.4460 ha         1 ML2       0.118000
     32 H141         1.6160     1.9550    -1.8560 h1         1 ML2       0.032200
     33 H142         3.0380     1.9560    -0.8040 h1         1 ML2       0.032200
@<TRIPOS>BOND
     1     1     6 2   
     2     1    11 1   
     3     1    12 1   
     4     2     3 ar  
     5     2    12 1   
     6     2    16 ar  
     7     3     4 ar  
     8     3    19 1   
     9     4    13 ar  
    10     4    20 1   
    11     5    14 1   
    12     5    21 1   
    13     5    22 1   
    14     5    23 1   
    15     6     7 1   
    16     6    16 1   
    17     7    17 1   
    18     7    24 1   
    19     7    25 1   
    20     8     9 1   
    21     8    17 1   
    22     8    26 1   
    23     9    10 1   
    24     9    18 2   
    25    10    27 1   
    26    10    28 1   
    27    10    29 1   
    28    12    30 1   
    29    13    14 1   
    30    13    15 ar  
    31    15    16 ar  
    32    15    31 1   
    33    17    32 1   
    34    17    33 1   
@<TRIPOS>SUBSTRUCTURE
     1 ML2         1 TEMP              0 ****  ****    0 ROOT
