@<TRIPOS>MOLECULE
molecule
   33    34     1     0     0
SMALL
bcc


@<TRIPOS>ATOM
      1 C2           0.0000     0.0000     0.0000 cc         1 ML2       0.075700
      2 C4           0.5930    -0.0000     2.1690 ca         1 ML2      -0.058200
      3 C5           0.6790    -0.0010     3.5570 ca         1 ML2      -0.108000
      4 C6           1.9120    -0.0010     4.1710 ca         1 ML2      -0.183000
      5 C9           4.2850    -0.0010     5.4640 c3         1 ML2       0.129700
      6 C12          1.3430     0.0000     0.0000 cd         1 ML2      -0.116400
      7 C13          2.2400     0.0010    -1.2110 c3         1 ML2      -0.028200
      8 N15          3.4140     1.4450    -2.7980 ns         1 ML2      -0.591900
      9 C16          3.8140     2.6130    -3.3380 c          1 ML2       0.655100
     10 C18          4.7100     2.6140    -4.5500 c3         1 ML2      -0.172100
     11 I1          -1.2020    -0.0080    -1.7160 i          1 ML2      -0.104800
     12 N3          -0.4670    -0.0010     1.2870 na         1 ML2      -0.167400
     13 C7           3.0800     0.0000     3.4130 ca         1 ML2       0.114100
     14 O8           4.2900     0.0000     4.0350 os         1 ML2      -0.329900
     15 C10          3.0160     0.0010     2.0340 ca         1 ML2      -0.114000
     16 C11          1.7710     0.0000     1.4020 ca         1 ML2      -0.066800
     17 C14          2.5420     1.4450    -1.6200 c3         1 ML2       0.113000
     18 O17          3.4510     3.6630    -2.8510 o          1 ML2      -0.607100
     19 H5          -0.2240    -0.0020     4.1550 ha         1 ML2       0.129000
     20 H6           1.9730    -0.0000     5.2520 ha         1 ML2       0.139000
     21 H91          3.7730     0.8830     5.8240 h1         1 ML2       0.040033
     22 H92          5.3050    -0.0010     5.8280 h1         1 ML2       0.040033
     23 H93          3.7730    -0.8860     5.8220 h1         1 ML2       0.040033
     24 H131         3.1660    -0.5090    -0.9740 hc         1 ML2       0.055200
     25 H132         1.7440    -0.5100    -2.0270 hc         1 ML2       0.055200
     26 H15          3.6800     0.5790    -3.2240 hn         1 ML2       0.310500
     27 H181         4.9430     3.6350    -4.8260 hc         1 ML2       0.059700
     28 H182         4.2050     2.1230    -5.3730 hc         1 ML2       0.059700
     29 H183         5.6270     2.0840    -4.3210 hc         1 ML2       0.059700
     30 H3          -1.4330    -0.0010     1.5480 hn         1 ML2       0.303700
     31 H10          3.9260     0.0010     1.4460 ha         1 ML2       0.147000
     32 H141         1.6160     1.9550    -1.8560 h1         1 ML2       0.060200
     33 H142         3.0380     1.9560    -0.8040 h1         1 ML2       0.060200
@<TRIPOS>BOND
     1    10     9 1
     2     9     8 1
     3     9    18 2
     4     8    17 1
     5     7    17 1
     6     7     6 1
     7     6     1 2
     8     6    16 1
     9    11     1 1
    10     1    12 1
    11    15    16 ar
    12    15    13 ar
    13    16     2 ar
    14    14    13 1
    15    14     5 1
    16    13     4 ar
    17    12     2 1
    18     2     3 ar
    19     4     3 ar
    20     3    19 1
    21     4    20 1
    22     5    21 1
    23     5    22 1
    24     5    23 1
    25     7    24 1
    26     7    25 1
    27     8    26 1
    28    10    27 1
    29    10    28 1
    30    10    29 1
    31    12    30 1
    32    15    31 1
    33    17    32 1
    34    17    33 1
@<TRIPOS>SUBSTRUCTURE
     1 ML2         1 TEMP              0 ****  ****    0 ROOT
