@<TRIPOS>MOLECULE
molecule
   59    62     1     0     0
SMALL
bcc


@<TRIPOS>ATOM
      1 O3           0.0000     0.0000     0.0000 o          1 ML4      -0.777300
      2 C2           1.3430     0.0000     0.0000 c          1 ML4       0.868600
      3 O1           1.9470     0.0010    -1.0470 o          1 ML4      -0.777300
      4 C4           2.0970     0.0000     1.3050 c3         1 ML4      -0.012500
      5 N5           3.4680    -0.4740     1.0780 nz         1 ML4      -0.789600
      6 C6           2.1350     1.4190     1.8720 c3         1 ML4      -0.041100
      7 C7           2.7800     1.3990     3.2340 ca         1 ML4      -0.125300
      8 C12          2.0020     1.2110     4.3630 ca         1 ML4      -0.139000
      9 C11          2.5870     1.1910     5.6120 ca         1 ML4      -0.105500
     10 C10          3.9650     1.3610     5.7360 cp         1 ML4      -0.114500
     11 C9           4.7440     1.5500     4.5950 ca         1 ML4      -0.105500
     12 C8           4.1480     1.5630     3.3510 ca         1 ML4      -0.139000
     13 C13          4.6010     1.3420     7.0760 cp         1 ML4       0.269500
     14 N18          3.8560     1.1550     8.1620 nb         1 ML4      -0.611000
     15 C17          4.4200     1.1380     9.3530 ca         1 ML4       0.233900
     16 C16          5.7980     1.3130     9.4750 ca         1 ML4       0.588900
     17 N15          6.5420     1.4990     8.3910 nb         1 ML4      -0.728000
     18 C14          5.9780     1.5120     7.1980 ca         1 ML4       0.366900
     19 N19          6.3930     1.2940    10.7300 nu         1 ML4      -0.894900
     20 C20          5.5720     1.0900    11.9260 c3         1 ML4       0.279100
     21 C21          6.4520     1.1120    13.1490 ca         1 ML4      -0.111300
     22 C26          6.9460     2.3230    13.6320 cp         1 ML4      -0.016000
     23 C25          7.7600     2.3360    14.7620 ca         1 ML4      -0.118000
     24 C24          8.0720     1.1520    15.4000 ca         1 ML4      -0.116000
     25 C23          7.5780    -0.0460    14.9170 ca         1 ML4      -0.130000
     26 C22          6.7660    -0.0650    13.7980 ca         1 ML4      -0.110000
     27 C27          6.6080     3.5930    12.9430 cp         1 ML4      -0.051000
     28 C32          7.5890     4.2920    12.2450 ca         1 ML4      -0.109000
     29 C31          7.2690     5.4740    11.6060 ca         1 ML4      -0.130000
     30 C30          5.9760     5.9630    11.6580 ca         1 ML4      -0.118000
     31 C29          4.9970     5.2710    12.3490 ca         1 ML4      -0.126000
     32 C28          5.3050     4.0870    12.9870 ca         1 ML4      -0.071300
     33 C33          4.2370     3.3330    13.7360 c3         1 ML4      -0.056800
     34 H4           1.6000    -0.6570     2.0090 hx         1 ML4       0.106700
     35 HN5          3.4500    -1.2680     0.4690 hn         1 ML4       0.439467
     36 HN5A         3.8810    -0.7330     1.9520 hn         1 ML4       0.439467
     37 H6           1.1240     1.8010     1.9570 hc         1 ML4       0.090700
     38 H6A          2.7080     2.0570     1.2110 hc         1 ML4       0.090700
     39 H12          0.9310     1.0790     4.2650 ha         1 ML4       0.132500
     40 H11          1.9770     1.0430     6.4950 ha         1 ML4       0.148500
     41 H9           5.8160     1.6810     4.6850 ha         1 ML4       0.148500
     42 H8           4.7520     1.7100     2.4640 ha         1 ML4       0.132500
     43 H17          3.8140     0.9860    10.2380 h4         1 ML4       0.032100
     44 H14          6.5850     1.6640     6.3130 h4         1 ML4       0.029100
     45 HN19         7.3880     1.3590    10.8120 hn         1 ML4       0.457800
     46 H20          5.0690     0.1330    11.8610 h1         1 ML4       0.053700
     47 H20A         4.8350     1.8810    11.9980 h1         1 ML4       0.053700
     48 H25          8.1460     3.2740    15.1420 ha         1 ML4       0.142000
     49 H24          8.7060     1.1610    16.2780 ha         1 ML4       0.136000
     50 H23          7.8230    -0.9730    15.4210 ha         1 ML4       0.135000
     51 H22          6.3820    -1.0070    13.4240 ha         1 ML4       0.135000
     52 H32          8.6020     3.9100    12.2030 ha         1 ML4       0.134000
     53 H31          8.0320     6.0180    11.0620 ha         1 ML4       0.133000
     54 H30          5.7300     6.8910    11.1570 ha         1 ML4       0.132000
     55 H29          3.9860     5.6570    12.3850 ha         1 ML4       0.134000
     56 H33          3.4910     2.9730    13.0370 hc         1 ML4       0.048033
     57 H33A         3.7680     3.9910    14.4570 hc         1 ML4       0.048033
     58 H33B         4.6830     2.4910    14.2520 hc         1 ML4       0.048033
     59 H53          4.0100     0.2590     0.6630 hn         1 ML4       0.439467
@<TRIPOS>BOND
     1     2     1 1
     2     3     2 1
     3     2     4 1
     4     6     4 1
     5     4     5 1
     6     4    34 1
     7     5    35 1
     8     5    36 1
     9     6     7 1
    10     6    37 1
    11     6    38 1
    12     8     7 ar
    13     7    12 ar
    14     8     9 ar
    15     8    39 1
    16     9    10 ar
    17     9    40 1
    18    10    13 1
    19    10    11 ar
    20    12    11 ar
    21    11    41 1
    22    12    42 1
    23    14    13 ar
    24    13    18 ar
    25    14    15 ar
    26    15    16 ar
    27    15    43 1
    28    16    19 1
    29    16    17 ar
    30    18    17 ar
    31    18    44 1
    32    19    20 1
    33    19    45 1
    34    20    21 1
    35    20    46 1
    36    20    47 1
    37    26    21 ar
    38    21    22 ar
    39    22    23 ar
    40    22    27 1
    41    24    23 ar
    42    23    48 1
    43    25    24 ar
    44    24    49 1
    45    26    25 ar
    46    25    50 1
    47    26    51 1
    48    28    27 ar
    49    27    32 ar
    50    28    29 ar
    51    28    52 1
    52    29    30 ar
    53    29    53 1
    54    30    31 ar
    55    30    54 1
    56    32    31 ar
    57    31    55 1
    58    32    33 1
    59    33    56 1
    60    33    57 1
    61    33    58 1
    62    59     5 1
@<TRIPOS>SUBSTRUCTURE
     1 ML4         1 TEMP              0 ****  ****    0 ROOT
