@<TRIPOS>MOLECULE
molecule
   49    49     1     0     0
SMALL
bcc


@<TRIPOS>ATOM
      1 O4           0.0000     0.0000     0.0000 o          1 ML5      -0.873833
      2 P1           1.6100     0.0000     0.0000 p5         1 ML5       0.971700
      3 O2           2.1470     0.0000     1.5180 o          1 ML5      -0.873833
      4 O3           2.1030    -1.2090    -0.6980 o          1 ML5      -0.873833
      5 C16          2.2180     1.4880    -0.8600 c3         1 ML5      -0.221600
      6 C15          3.7430     1.4270    -0.9710 c3         1 ML5      -0.066400
      7 C14          4.2530     2.6750    -1.6920 c3         1 ML5       0.014500
      8 N2           3.9700     3.8620    -0.8750 nz         1 ML5      -0.788600
      9 C13          5.7390     2.5580    -1.9100 c          1 ML5       0.651100
     10 O1           6.5080     3.1310    -1.1680 o          1 ML5      -0.627100
     11 N1           6.2140     1.8160    -2.9300 ns         1 ML5      -0.448100
     12 C5           7.5880     1.7840    -3.1920 ca         1 ML5       0.049600
     13 C4           8.4970     1.8350    -2.1420 ca         1 ML5      -0.121000
     14 C3           9.8530     1.8040    -2.4040 ca         1 ML5      -0.112000
     15 C2          10.3060     1.7210    -3.7090 ca         1 ML5      -0.138000
     16 C6           8.0450     1.6950    -4.5000 ca         1 ML5      -0.152000
     17 C1           9.4030     1.6690    -4.7540 ca         1 ML5      -0.069300
     18 C7           9.9000     1.5740    -6.1740 c3         1 ML5      -0.035100
     19 C8          10.0780     2.9810    -6.7470 c3         1 ML5      -0.077400
     20 C9          10.5840     2.8840    -8.1890 c3         1 ML5      -0.083400
     21 C10         10.7610     4.2920    -8.7630 c3         1 ML5      -0.081400
     22 C11         11.2670     4.1940   -10.2030 c3         1 ML5      -0.084400
     23 C12         11.4440     5.6020   -10.7770 c3         1 ML5      -0.092100
     24 H3           1.7850     1.5340    -1.8520 hc         1 ML5       0.017700
     25 H4           1.9320     2.3710    -0.3000 hc         1 ML5       0.017700
     26 H5           4.1750     1.3810     0.0210 hc         1 ML5       0.099700
     27 H6           4.0290     0.5440    -1.5300 hc         1 ML5       0.099700
     28 H7           3.7540     2.7690    -2.6490 hx         1 ML5       0.103700
     29 H8           4.4890     4.6420    -1.2280 hn         1 ML5       0.451800
     30 H9           2.9910     4.0680    -0.9130 hn         1 ML5       0.451800
     31 H11          5.5830     1.2960    -3.5070 hn         1 ML5       0.346500
     32 H12          8.1440     1.9010    -1.1200 ha         1 ML5       0.170000
     33 H13         10.5630     1.8450    -1.5870 ha         1 ML5       0.135000
     34 H14         11.3700     1.6980    -3.9110 ha         1 ML5       0.129000
     35 H15          7.3380     1.6550    -5.3200 ha         1 ML5       0.132000
     36 H16          9.1810     1.0290    -6.7720 hc         1 ML5       0.050200
     37 H17         10.8500     1.0550    -6.1890 hc         1 ML5       0.050200
     38 H18         10.7980     3.5270    -6.1490 hc         1 ML5       0.044200
     39 H19          9.1280     3.5000    -6.7320 hc         1 ML5       0.044200
     40 H20          9.8650     2.3380    -8.7880 hc         1 ML5       0.041200
     41 H21         11.5340     2.3650    -8.2040 hc         1 ML5       0.041200
     42 H22         11.4800     4.8380    -8.1640 hc         1 ML5       0.041200
     43 H23          9.8110     4.8100    -8.7480 hc         1 ML5       0.041200
     44 H24         10.5480     3.6480   -10.8020 hc         1 ML5       0.040200
     45 H25         12.2180     3.6750   -10.2180 hc         1 ML5       0.040200
     46 H26         10.4920     6.1180   -10.7680 hc         1 ML5       0.031700
     47 H27         12.1590     6.1500   -10.1750 hc         1 ML5       0.031700
     48 H28         11.8080     5.5330   -11.7950 hc         1 ML5       0.031700
     49 H231         4.2390     3.6870     0.0730 hn         1 ML5       0.451800
@<TRIPOS>BOND
     1     4     2 1
     2     3     2 1
     3     2     1 1
     4     2     5 1
     5     5     6 1
     6     6     7 1
     7     8     7 1
     8     7     9 1
     9     9    10 2
    10     9    11 1
    11    11    12 1
    12    12    16 ar
    13    12    13 ar
    14    16    17 ar
    15    13    14 ar
    16    17    18 1
    17    17    15 ar
    18    18    19 1
    19    23    22 1
    20    19    20 1
    21    21    22 1
    22    21    20 1
    23    14    15 ar
    24     5    24 1
    25     5    25 1
    26     6    26 1
    27     6    27 1
    28     7    28 1
    29     8    29 1
    30     8    30 1
    31    11    31 1
    32    13    32 1
    33    14    33 1
    34    15    34 1
    35    16    35 1
    36    18    36 1
    37    18    37 1
    38    19    38 1
    39    19    39 1
    40    20    40 1
    41    20    41 1
    42    21    42 1
    43    21    43 1
    44    22    44 1
    45    22    45 1
    46    23    46 1
    47    23    47 1
    48    23    48 1
    49    49     8 1
@<TRIPOS>SUBSTRUCTURE
     1 ML5         1 TEMP              0 ****  ****    0 ROOT
