@<TRIPOS>MOLECULE
ML5
   49    49     1     0     0
SMALL
bcc


@<TRIPOS>ATOM
      1 O4           0.0000     0.0000     0.0000 o          1 ML5      -0.700833
      2 P1           1.6100     0.0000     0.0000 p5         1 ML5       0.403700
      3 O2           2.1470     0.0000     1.5180 o          1 ML5      -0.700833
      4 O3           2.1030    -1.2090    -0.6980 o          1 ML5      -0.700833
      5 C16          2.2180     1.4880    -0.8600 c3         1 ML5      -0.025600
      6 C15          3.7430     1.4270    -0.9710 c3         1 ML5      -0.001400
      7 C14          4.2530     2.6750    -1.6920 c3         1 ML5      -0.183500
      8 N2           3.9700     3.8620    -0.8750 nz         1 ML5       0.051400
      9 C13          5.7390     2.5580    -1.9100 c          1 ML5       0.560100
     10 O1           6.5080     3.1310    -1.1680 o          1 ML5      -0.683100
     11 N1           6.2140     1.8160    -2.9300 ns         1 ML5       0.019900
     12 C5           7.5880     1.7840    -3.1920 ca         1 ML5      -0.102400
     13 C4           8.4970     1.8350    -2.1420 ca         1 ML5      -0.094000
     14 C3           9.8530     1.8040    -2.4040 ca         1 ML5      -0.083000
     15 C2          10.3060     1.7210    -3.7090 ca         1 ML5      -0.109000
     16 C6           8.0450     1.6950    -4.5000 ca         1 ML5      -0.122000
     17 C1           9.4030     1.6690    -4.7540 ca         1 ML5      -0.078300
     18 C7           9.9000     1.5740    -6.1740 c3         1 ML5       0.030900
     19 C8          10.0780     2.9810    -6.7470 c3         1 ML5      -0.026400
     20 C9          10.5840     2.8840    -8.1890 c3         1 ML5      -0.030400
     21 C10         10.7610     4.2920    -8.7630 c3         1 ML5      -0.029400
     22 C11         11.2670     4.1940   -10.2030 c3         1 ML5      -0.028400
     23 C12         11.4440     5.6020   -10.7770 c3         1 ML5       0.006900
     24 H3           1.7850     1.5340    -1.8520 hc         1 ML5      -0.009800
     25 H4           1.9320     2.3710    -0.3000 hc         1 ML5      -0.009800
     26 H5           4.1750     1.3810     0.0210 hc         1 ML5       0.059700
     27 H6           4.0290     0.5440    -1.5300 hc         1 ML5       0.059700
     28 H7           3.7540     2.7690    -2.6490 hx         1 ML5       0.073700
     29 H8           4.4890     4.6420    -1.2280 hn         1 ML5       0.216133
     30 H9           2.9910     4.0680    -0.9130 hn         1 ML5       0.216133
     31 H11          5.5830     1.2960    -3.5070 hn         1 ML5       0.184500
     32 H12          8.1440     1.9010    -1.1200 ha         1 ML5       0.151000
     33 H13         10.5630     1.8450    -1.5870 ha         1 ML5       0.104000
     34 H14         11.3700     1.6980    -3.9110 ha         1 ML5       0.103000
     35 H15          7.3380     1.6550    -5.3200 ha         1 ML5       0.109000
     36 H16          9.1810     1.0290    -6.7720 hc         1 ML5       0.018200
     37 H17         10.8500     1.0550    -6.1890 hc         1 ML5       0.018200
     38 H18         10.7980     3.5270    -6.1490 hc         1 ML5       0.016700
     39 H19          9.1280     3.5000    -6.7320 hc         1 ML5       0.016700
     40 H20          9.8650     2.3380    -8.7880 hc         1 ML5       0.014200
     41 H21         11.5340     2.3650    -8.2040 hc         1 ML5       0.014200
     42 H22         11.4800     4.8380    -8.1640 hc         1 ML5       0.014700
     43 H23          9.8110     4.8100    -8.7480 hc         1 ML5       0.014700
     44 H24         10.5480     3.6480   -10.8020 hc         1 ML5       0.012200
     45 H25         12.2180     3.6750   -10.2180 hc         1 ML5       0.012200
     46 H26         10.4920     6.1180   -10.7680 hc         1 ML5      -0.000633
     47 H27         12.1590     6.1500   -10.1750 hc         1 ML5      -0.000633
     48 H28         11.8080     5.5330   -11.7950 hc         1 ML5      -0.000633
     49 H231         4.2390     3.6870     0.0730 hn         1 ML5       0.216133
@<TRIPOS>BOND
     1     1     2 1   
     2     2     3 1   
     3     2     4 1   
     4     2     5 1   
     5     5     6 1   
     6     5    24 1   
     7     5    25 1   
     8     6     7 1   
     9     6    26 1   
    10     6    27 1   
    11     7     8 1   
    12     7     9 1   
    13     7    28 1   
    14     8    29 1   
    15     8    30 1   
    16     8    49 1   
    17     9    10 2   
    18     9    11 1   
    19    11    12 1   
    20    11    31 1   
    21    12    13 ar  
    22    12    16 ar  
    23    13    14 ar  
    24    13    32 1   
    25    14    15 ar  
    26    14    33 1   
    27    15    17 ar  
    28    15    34 1   
    29    16    17 ar  
    30    16    35 1   
    31    17    18 1   
    32    18    19 1   
    33    18    36 1   
    34    18    37 1   
    35    19    20 1   
    36    19    38 1   
    37    19    39 1   
    38    20    21 1   
    39    20    40 1   
    40    20    41 1   
    41    21    22 1   
    42    21    42 1   
    43    21    43 1   
    44    22    23 1   
    45    22    44 1   
    46    22    45 1   
    47    23    46 1   
    48    23    47 1   
    49    23    48 1   
@<TRIPOS>SUBSTRUCTURE
     1 ML5         1 TEMP              0 ****  ****    0 ROOT
