@<TRIPOS>MOLECULE
molecule
   43    45     1     0     0
SMALL
bcc


@<TRIPOS>ATOM
      1 N01          0.0000     0.0000     0.0000 nb         1 ML6      -0.706000
      2 C02          1.3180     0.0000     0.0000 ca         1 ML6       0.688200
      3 N02          1.9950    -0.0010    -1.2100 nv         1 ML6      -1.085500
      4 C03          2.0510     0.0000     1.1960 ca         1 ML6      -0.255300
      5 C04          1.3990    -0.0000     2.3910 ca         1 ML6      -0.079000
      6 C05         -0.0110     0.0010     2.3840 ca         1 ML6      -0.161300
      7 C06         -0.7460     0.0010     3.5800 ca         1 ML6      -0.111000
      8 C07         -2.1070     0.0020     3.5340 ca         1 ML6      -0.108000
      9 C08         -2.7810     0.0010     2.3150 ca         1 ML6      -0.073300
     10 C09         -2.0990    -0.0000     1.1370 ca         1 ML6      -0.166300
     11 C10         -0.6940     0.0010     1.1430 ca         1 ML6       0.431600
     12 C11         -4.2870     0.0010     2.3000 c3         1 ML6       0.202100
     13 N12         -4.7760     1.3870     2.2950 n7         1 ML6      -0.814200
     14 C13         -6.2460     1.4260     2.2810 c3         1 ML6       0.154800
     15 C14         -6.7170     2.8820     2.2740 c3         1 ML6      -0.078400
     16 C15         -8.2460     2.9230     2.2610 c3         1 ML6      -0.037100
     17 C21         -8.7100     4.3570     2.2560 ca         1 ML6      -0.055300
     18 C22         -8.9100     5.0140     1.0560 ca         1 ML6      -0.142000
     19 C23         -9.3370     6.3290     1.0490 ca         1 ML6      -0.101000
     20 C24         -9.5620     6.9890     2.2420 ca         1 ML6      -0.171000
     21 C25         -9.3600     6.3310     3.4450 ca         1 ML6       0.135900
     22 F25         -9.5810     6.9750     4.6120 f          1 ML6      -0.141900
     23 C26         -8.9400     5.0130     3.4500 ca         1 ML6      -0.165000
     24 HN02         2.2280     0.8650    -1.6540 hn         1 ML6       0.436300
     25 HN0A         2.2270    -0.8680    -1.6530 hn         1 ML6       0.436300
     26 H03          3.1340    -0.0000     1.1680 ha         1 ML6       0.142000
     27 H04          1.9490    -0.0000     3.3240 ha         1 ML6       0.139000
     28 H06         -0.2330     0.0010     4.5340 ha         1 ML6       0.133000
     29 H07         -2.6730     0.0020     4.4570 ha         1 ML6       0.136000
     30 H09         -2.6380    -0.0010     0.1970 ha         1 ML6       0.146000
     31 H11         -4.6570    -0.5090     3.1820 h1         1 ML6       0.039700
     32 H11A        -4.6400    -0.5100     1.4130 h1         1 ML6       0.039700
     33 HN12        -4.4220     1.8620     1.4880 hn         1 ML6       0.357800
     34 H13         -6.6290     0.9260     3.1620 h1         1 ML6       0.031200
     35 H13A        -6.6120     0.9240     1.3930 h1         1 ML6       0.031200
     36 H14         -6.3340     3.3810     1.3930 hc         1 ML6       0.054700
     37 H14A        -6.3500     3.3840     3.1620 hc         1 ML6       0.054700
     38 H15         -8.6290     2.4230     3.1420 hc         1 ML6       0.050700
     39 H15A        -8.6130     2.4220     1.3730 hc         1 ML6       0.050700
     40 H22         -8.7340     4.4970     0.1200 ha         1 ML6       0.134000
     41 H23         -9.4940     6.8430     0.1080 ha         1 ML6       0.136000
     42 H24         -9.8960     8.0190     2.2370 ha         1 ML6       0.144000
     43 H26         -8.7820     4.4980     4.3900 ha         1 ML6       0.146000
@<TRIPOS>BOND
     1     1    11 ar
     2     1     2 ar
     3     3     2 1
     4     2     4 ar
     5     3    24 1
     6     3    25 1
     7     4     5 ar
     8     4    26 1
     9     6     5 ar
    10     5    27 1
    11    11     6 ar
    12     6     7 ar
    13     8     7 ar
    14     7    28 1
    15     9     8 ar
    16     8    29 1
    17    12     9 1
    18    10     9 ar
    19    10    11 ar
    20    10    30 1
    21    13    12 1
    22    12    31 1
    23    12    32 1
    24    14    13 1
    25    13    33 1
    26    15    14 1
    27    14    34 1
    28    14    35 1
    29    16    15 1
    30    15    36 1
    31    15    37 1
    32    17    16 1
    33    16    38 1
    34    16    39 1
    35    18    17 ar
    36    23    17 ar
    37    19    18 ar
    38    18    40 1
    39    20    19 ar
    40    19    41 1
    41    20    21 ar
    42    20    42 1
    43    22    21 1
    44    21    23 ar
    45    23    43 1
@<TRIPOS>SUBSTRUCTURE
     1 ML6         1 TEMP              0 ****  ****    0 ROOT
