@<TRIPOS>MOLECULE
ML8
   51    54     1     0     0
SMALL
bcc


@<TRIPOS>ATOM
      1 C24          0.0000     0.0000     0.0000 ca         1 ML8      -0.107000
      2 C25          1.3800     0.0000     0.0000 ca         1 ML8      -0.064000
      3 C23         -0.6940     0.0060     1.1960 ca         1 ML8      -0.077000
      4 C21          1.3680     0.0010     2.4120 ca         1 ML8      -0.071000
      5 C14          2.0740     0.0000     1.2090 ca         1 ML8      -0.025800
      6 C1           5.6530    -1.0600     1.7100 ca         1 ML8      -0.431400
      7 C22         -0.0110     0.0060     2.3990 ca         1 ML8      -0.110300
      8 C6           6.3990    -2.1340     2.2170 ca         1 ML8       0.519600
      9 C2           6.3420     0.0590     1.1940 ca         1 ML8       0.458200
     10 C4           8.3330    -0.9910     1.6870 ca         1 ML8       0.759900
     11 C9           4.2390    -1.0820     1.7170 cc         1 ML8       0.012800
     12 C10          3.5560    -0.0070     1.2160 cd         1 ML8      -0.159400
     13 C11          4.3020     1.1370     0.6880 c          1 ML8       0.618700
     14 C16          6.3430     4.0080    -1.5640 c3         1 ML8      -0.014400
     15 C17          6.2600     4.6950    -0.1900 c3         1 ML8      -0.014400
     16 C15          6.0330     2.5150    -1.3300 c3         1 ML8      -0.055400
     17 C18          5.9020     3.5950     0.8320 c3         1 ML8      -0.055400
     18 C8           6.3810     2.2840     0.1610 c3         1 ML8      -0.011300
     19 C19         10.4710    -2.1010     2.2070 c3         1 ML8       0.199100
     20 C26         -0.7760     0.0080     3.6980 c3         1 ML8       0.285700
     21 N5           7.7170    -2.0580     2.1850 nb         1 ML8      -0.718000
     22 N3           7.6710     0.0480     1.2020 nb         1 ML8      -0.754000
     23 N7           5.6490     1.1320     0.6930 n          1 ML8       0.021700
     24 N20          9.7130    -0.9640     1.6780 nu         1 ML8      -0.467900
     25 O12          3.7020     2.0980     0.2400 o          1 ML8      -0.665500
     26 O27         -1.0120     1.3560     4.1100 oh         1 ML8      -0.584800
     27 H24         -0.5410     0.0000    -0.9390 ha         1 ML8       0.103000
     28 H25          1.9230    -0.0030    -0.9370 ha         1 ML8       0.108000
     29 H23         -1.7770     0.0080     1.1900 ha         1 ML8       0.103000
     30 H21          1.9020     0.0010     3.3550 ha         1 ML8       0.107000
     31 H9           3.7120    -1.8470     2.2730 ha         1 ML8       0.117000
     32 H16          5.6100     4.4370    -2.2360 hc         1 ML8       0.012200
     33 H16A         7.3400     4.1190    -1.9730 hc         1 ML8       0.012200
     34 H17          7.2170     5.1350     0.0620 hc         1 ML8       0.012200
     35 H17A         5.4880     5.4540    -0.2020 hc         1 ML8       0.012200
     36 H15          6.6570     1.8960    -1.9630 hc         1 ML8       0.037700
     37 H15A         4.9830     2.3150    -1.5080 hc         1 ML8       0.037700
     38 H18          6.4300     3.7580     1.7630 hc         1 ML8       0.037700
     39 H18A         4.8310     3.5660     0.9950 hc         1 ML8       0.037700
     40 H8           7.4500     2.1590     0.2880 h1         1 ML8       0.071700
     41 H13          5.0380    -3.7620     2.0450 hc         1 ML8       0.022033
     42 H13A         5.1500    -3.0660     3.6670 hc         1 ML8       0.022033
     43 H13B         6.4540    -4.0920     3.0520 hc         1 ML8       0.022033
     44 H19         10.2190    -2.2490     3.2500 h1         1 ML8       0.011367
     45 H19A        11.5320    -1.9010     2.1170 h1         1 ML8       0.011367
     46 H26         -1.7240    -0.4990     3.5600 h1         1 ML8      -0.015800
     47 H26A        -0.1990    -0.5060     4.4570 h1         1 ML8      -0.015800
     48 HO27        -1.4970     1.3570     4.9190 ho         1 ML8       0.386000
     49 H231        10.2230    -2.9930     1.6450 h1         1 ML8       0.011367
     50 H241        10.1950    -0.1570     1.3360 hn         1 ML8       0.299800
     51 C13          5.7120    -3.3490     2.7850 c3         1 ML8      -0.051400
@<TRIPOS>BOND
     1     1     2 ar  
     2     1     3 ar  
     3     1    27 1   
     4     2     5 ar  
     5     2    28 1   
     6     3     7 ar  
     7     3    29 1   
     8     4     5 ar  
     9     4     7 ar  
    10     4    30 1   
    11     5    12 1   
    12     6     8 ar  
    13     6     9 ar  
    14     6    11 1   
    15     7    20 1   
    16     8    21 ar  
    17     8    51 1   
    18     9    22 ar  
    19     9    23 1   
    20    10    21 ar  
    21    10    22 ar  
    22    10    24 1   
    23    11    12 2   
    24    11    31 1   
    25    12    13 1   
    26    13    23 1   
    27    13    25 2   
    28    14    15 1   
    29    14    16 1   
    30    14    32 1   
    31    14    33 1   
    32    15    17 1   
    33    15    34 1   
    34    15    35 1   
    35    16    18 1   
    36    16    36 1   
    37    16    37 1   
    38    17    18 1   
    39    17    38 1   
    40    17    39 1   
    41    18    23 1   
    42    18    40 1   
    43    19    24 1   
    44    19    44 1   
    45    19    45 1   
    46    19    49 1   
    47    20    26 1   
    48    20    46 1   
    49    20    47 1   
    50    24    50 1   
    51    26    48 1   
    52    41    51 1   
    53    42    51 1   
    54    43    51 1   
@<TRIPOS>SUBSTRUCTURE
     1 ML8         1 TEMP              0 ****  ****    0 ROOT
