@<TRIPOS>MOLECULE
molecule
   51    54     1     0     0
SMALL
bcc


@<TRIPOS>ATOM
      1 C24          0.0000     0.0000     0.0000 ca         1 ML8      -0.134000
      2 C25          1.3800     0.0000     0.0000 ca         1 ML8      -0.088000
      3 C23         -0.6940     0.0060     1.1960 ca         1 ML8      -0.103000
      4 C21          1.3680     0.0010     2.4120 ca         1 ML8      -0.094000
      5 C14          2.0740     0.0000     1.2090 ca         1 ML8      -0.034800
      6 C1           5.6530    -1.0600     1.7100 ca         1 ML8      -0.430400
      7 C22         -0.0110     0.0060     2.3990 ca         1 ML8      -0.091300
      8 C6           6.3990    -2.1340     2.2170 ca         1 ML8       0.558600
      9 C2           6.3420     0.0590     1.1940 ca         1 ML8       0.646200
     10 C4           8.3330    -0.9910     1.6870 ca         1 ML8       0.986900
     11 C9           4.2390    -1.0820     1.7170 cc         1 ML8      -0.012200
     12 C10          3.5560    -0.0070     1.2160 cd         1 ML8      -0.158400
     13 C11          4.3020     1.1370     0.6880 c          1 ML8       0.708700
     14 C16          6.3430     4.0080    -1.5640 c3         1 ML8      -0.077900
     15 C17          6.2600     4.6950    -0.1900 c3         1 ML8      -0.077900
     16 C15          6.0330     2.5150    -1.3300 c3         1 ML8      -0.100400
     17 C18          5.9020     3.5950     0.8320 c3         1 ML8      -0.100400
     18 C8           6.3810     2.2840     0.1610 c3         1 ML8       0.100700
     19 C19         10.4710    -2.1010     2.2070 c3         1 ML8       0.236100
     20 C26         -0.7760     0.0080     3.6980 c3         1 ML8       0.189700
     21 N5           7.7170    -2.0580     2.1850 nb         1 ML8      -0.822000
     22 N3           7.6710     0.0480     1.2020 nb         1 ML8      -0.858000
     23 N7           5.6490     1.1320     0.6930 n          1 ML8      -0.400300
     24 N20          9.7130    -0.9640     1.6780 nu         1 ML8      -0.890900
     25 O12          3.7020     2.0980     0.2400 o          1 ML8      -0.620500
     26 O27         -1.0120     1.3560     4.1100 oh         1 ML8      -0.600800
     27 H24         -0.5410     0.0000    -0.9390 ha         1 ML8       0.132000
     28 H25          1.9230    -0.0030    -0.9370 ha         1 ML8       0.138000
     29 H23         -1.7770     0.0080     1.1900 ha         1 ML8       0.131000
     30 H21          1.9020     0.0010     3.3550 ha         1 ML8       0.133000
     31 H9           3.7120    -1.8470     2.2730 ha         1 ML8       0.143000
     32 H16          5.6100     4.4370    -2.2360 hc         1 ML8       0.043200
     33 H16A         7.3400     4.1190    -1.9730 hc         1 ML8       0.043200
     34 H17          7.2170     5.1350     0.0620 hc         1 ML8       0.043200
     35 H17A         5.4880     5.4540    -0.2020 hc         1 ML8       0.043200
     36 H15          6.6570     1.8960    -1.9630 hc         1 ML8       0.062950
     37 H15A         4.9830     2.3150    -1.5080 hc         1 ML8       0.062950
     38 H18          6.4300     3.7580     1.7630 hc         1 ML8       0.062950
     39 H18A         4.8310     3.5660     0.9950 hc         1 ML8       0.062950
     40 H8           7.4500     2.1590     0.2880 h1         1 ML8       0.097700
     41 H13          5.0380    -3.7620     2.0450 hc         1 ML8       0.061367
     42 H13A         5.1500    -3.0660     3.6670 hc         1 ML8       0.061367
     43 H13B         6.4540    -4.0920     3.0520 hc         1 ML8       0.061367
     44 H19         10.2190    -2.2490     3.2500 h1         1 ML8       0.043367
     45 H19A        11.5320    -1.9010     2.1170 h1         1 ML8       0.043367
     46 H26         -1.7240    -0.4990     3.5600 h1         1 ML8       0.023200
     47 H26A        -0.1990    -0.5060     4.4570 h1         1 ML8       0.023200
     48 HO27        -1.4970     1.3570     4.9190 ho         1 ML8       0.399000
     49 H231        10.2230    -2.9930     1.6450 h1         1 ML8       0.043367
     50 H241        10.1950    -0.1570     1.3360 hn         1 ML8       0.459800
     51 C13          5.7120    -3.3490     2.7850 c3         1 ML8      -0.148400
@<TRIPOS>BOND
     1     1    27 1
     2     2     1 ar
     3     2    28 1
     4     3     1 ar
     5     3    29 1
     6     4     7 ar
     7     4     5 ar
     8     4    30 1
     9     5     2 ar
    10     6    11 1
    11     6     9 ar
    12     7     3 ar
    13     8     6 ar
    14     9    23 1
    15    10    22 ar
    16    11    12 2
    17    11    31 1
    18    12     5 1
    19    12    13 1
    20    13    25 2
    21    14    15 1
    22    14    32 1
    23    14    33 1
    24    15    34 1
    25    15    35 1
    26    16    14 1
    27    16    18 1
    28    16    36 1
    29    16    37 1
    30    17    15 1
    31    17    38 1
    32    17    39 1
    33    18    17 1
    34    18    40 1
    35    51     8 1
    36    51    41 1
    37    51    42 1
    38    51    43 1
    39    19    44 1
    40    19    45 1
    41    20     7 1
    42    20    46 1
    43    20    47 1
    44    21     8 ar
    45    21    10 ar
    46    22     9 ar
    47    23    13 1
    48    23    18 1
    49    24    10 1
    50    24    19 1
    51    26    20 1
    52    26    48 1
    53    19    49 1
    54    24    50 1
@<TRIPOS>SUBSTRUCTURE
     1 ML8         1 TEMP              0 ****  ****    0 ROOT
