@<TRIPOS>MOLECULE
ML9
   58    61     1     0     0
SMALL
bcc


@<TRIPOS>ATOM
      1 C14          0.0000     0.0000     0.0000 ca         1 ML9      -0.022000
      2 C15          1.3820     0.0000     0.0000 ca         1 ML9      -0.253300
      3 C18          0.0870     0.0120     2.4060 ca         1 ML9       0.481200
      4 C13         -0.6640     0.0070     1.2320 ca         1 ML9      -0.199100
      5 C5          -4.2650     1.0490     0.8740 ca         1 ML9      -0.370400
      6 C6          -5.0370     2.1170     0.3910 ca         1 ML9       0.479600
      7 C4          -4.9290    -0.0680     1.4260 ca         1 ML9       0.413200
      8 C16          2.0620     0.0000     1.2120 ca         1 ML9       0.628600
      9 C2          -6.9410     0.9660     1.0000 ca         1 ML9       0.762900
     10 C10         -2.8530     1.0770     0.8080 cc         1 ML9      -0.008200
     11 C9          -2.1450     0.0080     1.2870 cd         1 ML9      -0.121400
     12 C8          -2.8640    -1.1350     1.8540 c          1 ML9       0.614700
     13 C23         -4.5690    -3.5440     1.6730 c3         1 ML9      -0.053400
     14 C27         -4.4860    -2.4770     3.9310 c3         1 ML9      -0.053400
     15 C24         -5.3040    -4.7460     2.2680 c3         1 ML9      -0.033400
     16 C26         -5.2210    -3.6790     4.5260 c3         1 ML9      -0.033400
     17 C22         -4.9140    -2.2870     2.4740 c3         1 ML9      -0.009300
     18 C25         -4.8770    -4.9360     3.7250 c3         1 ML9       0.174100
     19 C20          4.0610    -0.0010     2.4960 c3         1 ML9       0.255700
     20 C30         -5.6580    -7.9190     5.8190 c3         1 ML9       0.221400
     21 N17          1.4040     0.0010     2.3600 nb         1 ML9      -0.663000
     22 N1          -6.3510     2.0330     0.4730 nb         1 ML9      -0.658000
     23 N3          -6.2570    -0.0640     1.4720 nb         1 ML9      -0.673000
     24 N7          -4.2110    -1.1350     1.9040 n          1 ML9       0.018700
     25 N12         -8.3200     0.9340     1.0670 nv         1 ML9      -0.641500
     26 O11         -2.2420    -2.0900     2.2830 o          1 ML9      -0.667500
     27 O31         -5.8330    -8.8770     4.7730 oh         1 ML9      -0.582800
     28 O19          3.4180    -0.0010     1.2190 os         1 ML9      -0.432100
     29 O28         -5.5630    -6.0580     4.2810 os         1 ML9      -0.397600
     30 H14         -0.5550    -0.0020    -0.9300 ha         1 ML9       0.109000
     31 H15          1.9290    -0.0030    -0.9350 ha         1 ML9       0.125000
     32 H18         -0.4170     0.0150     3.3650 h4         1 ML9      -0.014900
     33 H10         -2.3530     1.8390     0.2230 ha         1 ML9       0.122000
     34 H23         -3.5010    -3.7170     1.7170 hc         1 ML9       0.037700
     35 H23A        -4.8760    -3.4090     0.6420 hc         1 ML9       0.037700
     36 H27         -3.4180    -2.6520     3.9720 hc         1 ML9       0.037700
     37 H27A        -4.7330    -1.5870     4.4970 hc         1 ML9       0.037700
     38 H24         -5.0570    -5.6360     1.7020 hc         1 ML9       0.023700
     39 H24A        -6.3730    -4.5710     2.2270 hc         1 ML9       0.023700
     40 H26         -6.2890    -3.5050     4.4820 hc         1 ML9       0.023700
     41 H26A        -4.9140    -3.8140     5.5560 hc         1 ML9       0.023700
     42 H22         -5.9840    -2.1180     2.4330 h1         1 ML9       0.074700
     43 H25         -3.8070    -5.1050     3.7650 h1         1 ML9       0.017700
     44 H21         -3.8520     3.0480    -1.1120 hc         1 ML9       0.023033
     45 H21A        -5.1330     4.0710    -0.4470 hc         1 ML9       0.023033
     46 H21B        -3.6750     3.7490     0.5030 hc         1 ML9       0.023033
     47 H20          3.7670    -0.8850     3.0490 h1         1 ML9       0.000033
     48 H20A         3.7680     0.8840     3.0480 h1         1 ML9       0.000033
     49 H20B         5.1360    -0.0020     2.3590 h1         1 ML9       0.000033
     50 H30         -6.6260    -7.5590     6.1450 h1         1 ML9      -0.010800
     51 H30A        -5.1460    -8.3850     6.6530 h1         1 ML9      -0.010800
     52 H29         -4.6210    -6.0600     6.1140 h1         1 ML9      -0.002300
     53 H29A        -3.8980    -7.1100     4.8880 h1         1 ML9      -0.002300
     54 HN12        -8.8490     0.5590     0.3050 hn         1 ML9       0.284800
     55 HN1A        -8.7900     1.3080     1.8670 hn         1 ML9       0.284800
     56 HO31        -6.2850    -9.6330     5.1100 ho         1 ML9       0.385000
     57 C21         -4.3780     3.3320    -0.2080 c3         1 ML9      -0.051400
     58 C29         -4.8300    -6.7420     5.2990 c3         1 ML9       0.202400
@<TRIPOS>BOND
     1     1     2 ar  
     2     1     4 ar  
     3     1    30 1   
     4     2     8 ar  
     5     2    31 1   
     6     3     4 ar  
     7     3    21 ar  
     8     3    32 1   
     9     4    11 1   
    10     5     6 ar  
    11     5     7 ar  
    12     5    10 1   
    13     6    22 ar  
    14     6    57 1   
    15     7    23 ar  
    16     7    24 1   
    17     8    21 ar  
    18     8    28 1   
    19     9    22 ar  
    20     9    23 ar  
    21     9    25 1   
    22    10    11 2   
    23    10    33 1   
    24    11    12 1   
    25    12    24 1   
    26    12    26 2   
    27    13    15 1   
    28    13    17 1   
    29    13    34 1   
    30    13    35 1   
    31    14    16 1   
    32    14    17 1   
    33    14    36 1   
    34    14    37 1   
    35    15    18 1   
    36    15    38 1   
    37    15    39 1   
    38    16    18 1   
    39    16    40 1   
    40    16    41 1   
    41    17    24 1   
    42    17    42 1   
    43    18    29 1   
    44    18    43 1   
    45    19    28 1   
    46    19    47 1   
    47    19    48 1   
    48    19    49 1   
    49    20    27 1   
    50    20    50 1   
    51    20    51 1   
    52    20    58 1   
    53    25    54 1   
    54    25    55 1   
    55    27    56 1   
    56    29    58 1   
    57    44    57 1   
    58    45    57 1   
    59    46    57 1   
    60    52    58 1   
    61    53    58 1   
@<TRIPOS>SUBSTRUCTURE
     1 ML9         1 TEMP              0 ****  ****    0 ROOT
