@<TRIPOS>MOLECULE
molecule
   58    61     1     0     0
SMALL
bcc


@<TRIPOS>ATOM
      1 C14          0.0000     0.0000     0.0000 ca         1 ML9      -0.049000
      2 C15          1.3820     0.0000     0.0000 ca         1 ML9      -0.272300
      3 C18          0.0870     0.0120     2.4060 ca         1 ML9       0.495200
      4 C13         -0.6640     0.0070     1.2320 ca         1 ML9      -0.206100
      5 C5          -4.2650     1.0490     0.8740 ca         1 ML9      -0.384400
      6 C6          -5.0370     2.1170     0.3910 ca         1 ML9       0.527600
      7 C4          -4.9290    -0.0680     1.4260 ca         1 ML9       0.610200
      8 C16          2.0620     0.0000     1.2120 ca         1 ML9       0.663600
      9 C2          -6.9410     0.9660     1.0000 ca         1 ML9       0.982900
     10 C10         -2.8530     1.0770     0.8080 cc         1 ML9      -0.027200
     11 C9          -2.1450     0.0080     1.2870 cd         1 ML9      -0.132400
     12 C8          -2.8640    -1.1350     1.8540 c          1 ML9       0.704700
     13 C23         -4.5690    -3.5440     1.6730 c3         1 ML9      -0.098900
     14 C27         -4.4860    -2.4770     3.9310 c3         1 ML9      -0.098900
     15 C24         -5.3040    -4.7460     2.2680 c3         1 ML9      -0.085900
     16 C26         -5.2210    -3.6790     4.5260 c3         1 ML9      -0.085900
     17 C22         -4.9140    -2.2870     2.4740 c3         1 ML9       0.105700
     18 C25         -4.8770    -4.9360     3.7250 c3         1 ML9       0.142100
     19 C20          4.0610    -0.0010     2.4960 c3         1 ML9       0.137700
     20 C30         -5.6580    -7.9190     5.8190 c3         1 ML9       0.142400
     21 N17          1.4040     0.0010     2.3600 nb         1 ML9      -0.772000
     22 N1          -6.3510     2.0330     0.4730 nb         1 ML9      -0.777000
     23 N3          -6.2570    -0.0640     1.4720 nb         1 ML9      -0.797000
     24 N7          -4.2110    -1.1350     1.9040 n          1 ML9      -0.403300
     25 N12         -8.3200     0.9340     1.0670 nv         1 ML9      -1.060500
     26 O11         -2.2420    -2.0900     2.2830 o          1 ML9      -0.623500
     27 O31         -5.8330    -8.8770     4.7730 oh         1 ML9      -0.599800
     28 O19          3.4180    -0.0010     1.2190 os         1 ML9      -0.442100
     29 O28         -5.5630    -6.0580     4.2810 os         1 ML9      -0.415600
     30 H14         -0.5550    -0.0020    -0.9300 ha         1 ML9       0.142000
     31 H15          1.9290    -0.0030    -0.9350 ha         1 ML9       0.151000
     32 H18         -0.4170     0.0150     3.3650 h4         1 ML9       0.032100
     33 H10         -2.3530     1.8390     0.2230 ha         1 ML9       0.147000
     34 H23         -3.5010    -3.7170     1.7170 hc         1 ML9       0.063450
     35 H23A        -4.8760    -3.4090     0.6420 hc         1 ML9       0.063450
     36 H27         -3.4180    -2.6520     3.9720 hc         1 ML9       0.063450
     37 H27A        -4.7330    -1.5870     4.4970 hc         1 ML9       0.063450
     38 H24         -5.0570    -5.6360     1.7020 hc         1 ML9       0.053200
     39 H24A        -6.3730    -4.5710     2.2270 hc         1 ML9       0.053200
     40 H26         -6.2890    -3.5050     4.4820 hc         1 ML9       0.053200
     41 H26A        -4.9140    -3.8140     5.5560 hc         1 ML9       0.053200
     42 H22         -5.9840    -2.1180     2.4330 h1         1 ML9       0.099700
     43 H25         -3.8070    -5.1050     3.7650 h1         1 ML9       0.044700
     44 H21         -3.8520     3.0480    -1.1120 hc         1 ML9       0.062367
     45 H21A        -5.1330     4.0710    -0.4470 hc         1 ML9       0.062367
     46 H21B        -3.6750     3.7490     0.5030 hc         1 ML9       0.062367
     47 H20          3.7670    -0.8850     3.0490 h1         1 ML9       0.046700
     48 H20A         3.7680     0.8840     3.0480 h1         1 ML9       0.046700
     49 H20B         5.1360    -0.0020     2.3590 h1         1 ML9       0.046700
     50 H30         -6.6260    -7.5590     6.1450 h1         1 ML9       0.028200
     51 H30A        -5.1460    -8.3850     6.6530 h1         1 ML9       0.028200
     52 H29         -4.6210    -6.0600     6.1140 h1         1 ML9       0.032200
     53 H29A        -3.8980    -7.1100     4.8880 h1         1 ML9       0.032200
     54 HN12        -8.8490     0.5590     0.3050 hn         1 ML9       0.449800
     55 HN1A        -8.7900     1.3080     1.8670 hn         1 ML9       0.449800
     56 HO31        -6.2850    -9.6330     5.1100 ho         1 ML9       0.399000
     57 C21         -4.3780     3.3320    -0.2080 c3         1 ML9      -0.149400
     58 C29         -4.8300    -6.7420     5.2990 c3         1 ML9       0.141400
@<TRIPOS>BOND
     1     4     1 ar
     2     1     2 ar
     3     1    30 1
     4     8     2 ar
     5     2    31 1
     6     3    21 ar
     7     3     4 ar
     8     3    32 1
     9    11     4 1
    10     6     5 ar
    11     5     7 ar
    12     5    10 1
    13    57     6 1
    14    22     6 ar
    15    23     7 ar
    16     7    24 1
    17    21     8 ar
    18     8    28 1
    19    25     9 1
    20    22     9 ar
    21     9    23 ar
    22    10    11 2
    23    10    33 1
    24    11    12 1
    25    24    12 1
    26    12    26 2
    27    13    17 1
    28    13    15 1
    29    13    34 1
    30    13    35 1
    31    17    14 1
    32    14    16 1
    33    14    36 1
    34    14    37 1
    35    15    18 1
    36    15    38 1
    37    15    39 1
    38    18    16 1
    39    16    40 1
    40    16    41 1
    41    24    17 1
    42    17    42 1
    43    18    29 1
    44    18    43 1
    45    57    44 1
    46    57    45 1
    47    57    46 1
    48    19    28 1
    49    19    47 1
    50    19    48 1
    51    19    49 1
    52    27    20 1
    53    58    20 1
    54    20    50 1
    55    20    51 1
    56    29    58 1
    57    58    52 1
    58    58    53 1
    59    25    54 1
    60    25    55 1
    61    27    56 1
@<TRIPOS>SUBSTRUCTURE
     1 ML9         1 TEMP              0 ****  ****    0 ROOT
