@<TRIPOS>MOLECULE
MLA
    9     8     1     0     0
SMALL
bcc


@<TRIPOS>ATOM
      1 C1          0.0450   -0.2510    0.0420 c         1 MLA      0.922600
      2 O1A         1.0130    0.5420    0.2860 o         1 MLA     -0.898800
      3 O1B        -0.1440   -1.2790    0.7640 o         1 MLA     -0.898800
      4 C2         -0.7880   -0.0090   -1.2140 c3        1 MLA     -0.260400
      5 C3         -2.2840    0.2620   -1.0780 c         1 MLA      0.922600
      6 O3A        -2.7090    1.3150   -0.5110 o         1 MLA     -0.898800
      7 O3B        -3.0970   -0.5380   -1.6500 o         1 MLA     -0.898800
      8 HC21       -0.3480    0.8710   -1.7520 hc        1 MLA      0.004700
      9 HC22       -0.6610   -0.9140   -1.8650 hc        1 MLA      0.004700
@<TRIPOS>BOND
     1    1    2 1   
     2    1    3 1   
     3    1    4 1   
     4    4    5 1   
     5    4    8 1   
     6    4    9 1   
     7    5    6 1   
     8    5    7 1   
@<TRIPOS>SUBSTRUCTURE
     1 MLA         1 TEMP              0 ****  ****    0 ROOT
