@<TRIPOS>MOLECULE
molecule
    9     8     1     0     0
SMALL
bcc


@<TRIPOS>ATOM
      1 C1           0.0000     0.0000     0.0000 c          1 MLA       0.887600
      2 O1A          1.3420     0.0000     0.0000 o          1 MLA      -0.880550
      3 O1B         -0.6040     0.0000     1.0450 o          1 MLA      -0.880550
      4 C2          -0.7530     0.0000    -1.3050 c3         1 MLA      -0.276400
      5 C3          -2.2340    -0.0000    -1.0300 c          1 MLA       0.887600
      6 O3A         -2.6360    -0.0000     0.1080 o          1 MLA      -0.880550
      7 O3B         -3.1060     0.0000    -2.0510 o          1 MLA      -0.880550
      8 HC21        -0.4910    -0.8850    -1.8730 hc         1 MLA       0.011700
      9 HC22        -0.4910     0.8850    -1.8730 hc         1 MLA       0.011700
@<TRIPOS>BOND
     1     1     2 1
     2     1     3 1
     3     1     4 1
     4     4     5 1
     5     4     8 1
     6     4     9 1
     7     5     6 1
     8     5     7 1
@<TRIPOS>SUBSTRUCTURE
     1 MLA         1 TEMP              0 ****  ****    0 ROOT
