@<TRIPOS>MOLECULE
MLI
    9     8     1     0     0
SMALL
bcc


@<TRIPOS>ATOM
      1 C1          0.0680   -0.0540    0.0920 c3        1 MLI     -0.260400
      2 C2          1.5890   -0.1320   -0.0150 c         1 MLI      0.922600
      3 C3         -0.5730    0.1930    1.4540 c         1 MLI      0.922600
      4 O6          2.2360   -1.0750    0.5370 o         1 MLI     -0.898800
      5 O7          2.1850    0.7080   -0.7680 o         1 MLI     -0.898800
      6 O8         -0.4070    1.2940    2.0660 o         1 MLI     -0.898800
      7 O9         -1.3760   -0.6860    1.9130 o         1 MLI     -0.898800
      8 H11        -0.3330   -1.0240   -0.3040 hc        1 MLI      0.004700
      9 H12        -0.2810    0.7690   -0.5840 hc        1 MLI      0.004700
@<TRIPOS>BOND
     1    1    2 1   
     2    1    3 1   
     3    1    8 1   
     4    1    9 1   
     5    2    4 1   
     6    2    5 1   
     7    3    6 1   
     8    3    7 1   
@<TRIPOS>SUBSTRUCTURE
     1 MLI         1 TEMP              0 ****  ****    0 ROOT
