@<TRIPOS>MOLECULE
molecule
    9     8     1     0     0
SMALL
bcc


@<TRIPOS>ATOM
      1 C1           0.0000     0.0000     0.0000 c3         1 MLI      -0.324400
      2 C2           1.5070     0.0000     0.0000 c          1 MLI       0.917100
      3 C3          -0.5020     0.0000     1.4210 c          1 MLI       0.917100
      4 O6           2.1180    -0.0010     1.0560 o          1 MLI      -0.876800
      5 O7           2.1170    -0.0050    -1.0560 o          1 MLI      -0.876800
      6 O8           0.2900    -0.0010     2.3480 o          1 MLI      -0.876800
      7 O9          -1.7010    -0.0000     1.6440 o          1 MLI      -0.876800
      8 H11         -0.3610    -0.8850    -0.5110 hc         1 MLI      -0.001300
      9 H12         -0.3610     0.8850    -0.5110 hc         1 MLI      -0.001300
@<TRIPOS>BOND
     1     1     2 1
     2     1     3 1
     3     1     8 1
     4     1     9 1
     5     2     4 1
     6     2     5 1
     7     3     6 1
     8     3     7 1
@<TRIPOS>SUBSTRUCTURE
     1 MLI         1 TEMP              0 ****  ****    0 ROOT
