@<TRIPOS>MOLECULE
MLJ
   50    52     1     0     0
SMALL
bcc


@<TRIPOS>ATOM
      1 C02          0.0000     0.0000     0.0000 c3         1 MLJ       0.757700
      2 C06         -1.8210    -1.3210    -0.7630 ca         1 MLJ       0.159100
      3 C07         -2.6660    -0.3630    -0.2180 ca         1 MLJ      -0.170000
      4 C08         -4.0320    -0.5130    -0.3110 ca         1 MLJ      -0.016000
      5 C09         -4.5670    -1.6310    -0.9560 ca         1 MLJ      -0.181600
      6 C10         -3.7140    -2.5920    -1.5040 ca         1 MLJ      -0.016000
      7 C11         -2.3500    -2.4340    -1.4060 ca         1 MLJ      -0.170000
      8 C12         -6.0310    -1.7960    -1.0590 c          1 MLJ       0.598700
      9 C15         -7.9970    -3.0390    -1.7830 c3         1 MLJ       0.064000
     10 C16         -8.3130    -4.3350    -2.5310 c3         1 MLJ      -0.114400
     11 C17         -9.8070    -4.5040    -2.6350 c          1 MLJ       0.576100
     12 C20        -11.7740    -5.7460    -3.3600 c3         1 MLJ       0.084000
     13 C21        -12.1040    -7.2300    -3.5110 c3         1 MLJ      -0.039400
     14 C22        -13.5980    -7.3620    -3.8320 c3         1 MLJ      -0.020400
     15 C23        -13.8350    -6.8350    -5.2460 c3         1 MLJ       0.031900
     16 C24        -13.2290    -5.4660    -5.4100 ca         1 MLJ      -0.073300
     17 C25        -13.6580    -4.6930    -6.4810 ca         1 MLJ      -0.109000
     18 C26        -13.1380    -3.4320    -6.6870 ca         1 MLJ      -0.096000
     19 C27        -12.1830    -2.9320    -5.8220 ca         1 MLJ      -0.102000
     20 C28        -11.7570    -3.6990    -4.7560 ca         1 MLJ      -0.110000
     21 C29        -12.2800    -4.9670    -4.5450 ca         1 MLJ      -0.105300
     22 F01          1.3990     0.0000     0.0000 f          1 MLJ      -0.195300
     23 F03         -0.4660     0.0000     1.3180 f          1 MLJ      -0.195300
     24 F04         -0.4660     1.1420    -0.6600 f          1 MLJ      -0.195300
     25 N14         -6.5450    -2.8750    -1.6820 ns         1 MLJ      -0.209900
     26 N19        -10.3220    -5.5820    -3.2580 ns         1 MLJ      -0.187900
     27 O05         -0.4760    -1.1670    -0.6740 os         1 MLJ      -0.314900
     28 O13         -6.7720    -0.9590    -0.5810 o          1 MLJ      -0.638100
     29 O18        -10.5460    -3.6690    -2.1590 o          1 MLJ      -0.637100
     30 H071        -2.2510     0.5030     0.2820 ha         1 MLJ       0.128000
     31 H081        -4.6900     0.2340     0.1140 ha         1 MLJ       0.118000
     32 H101        -4.1260    -3.4600    -2.0050 ha         1 MLJ       0.118000
     33 H111        -1.6870    -3.1790    -1.8300 ha         1 MLJ       0.128000
     34 H152        -8.4190    -2.1990    -2.3230 h1         1 MLJ       0.043700
     35 H151        -8.4260    -3.0810    -0.7890 h1         1 MLJ       0.043700
     36 H161        -7.8840    -4.2930    -3.5240 hc         1 MLJ       0.028700
     37 H162        -7.8920    -5.1750    -1.9910 hc         1 MLJ       0.028700
     38 H201       -12.2440    -5.3690    -2.4600 h1         1 MLJ       0.065700
     39 H211       -11.8830    -7.7490    -2.5860 hc         1 MLJ       0.019200
     40 H212       -11.5200    -7.6520    -4.3200 hc         1 MLJ       0.019200
     41 H222       -14.1640    -6.7600    -3.1320 hc         1 MLJ       0.021700
     42 H221       -13.8760    -8.4090    -3.7940 hc         1 MLJ       0.021700
     43 H231       -13.3600    -7.5090    -5.9490 hc         1 MLJ       0.022700
     44 H232       -14.9030    -6.7620    -5.4130 hc         1 MLJ       0.022700
     45 H251       -14.4070    -5.0840    -7.1590 ha         1 MLJ       0.104000
     46 H261       -13.4770    -2.8350    -7.5260 ha         1 MLJ       0.101000
     47 H271       -11.7710    -1.9430    -5.9790 ha         1 MLJ       0.104000
     48 H281       -11.0080    -3.3070    -4.0780 ha         1 MLJ       0.138000
     49 H141        -5.9350    -3.5760    -2.0540 hn         1 MLJ       0.174500
     50 H191        -9.7120    -6.2790    -3.6370 hn         1 MLJ       0.173500
@<TRIPOS>BOND
     1     1    22 1   
     2     1    23 1   
     3     1    24 1   
     4     1    27 1   
     5     2     3 ar  
     6     2     7 ar  
     7     2    27 1   
     8     3     4 ar  
     9     3    30 1   
    10     4     5 ar  
    11     4    31 1   
    12     5     6 ar  
    13     5     8 1   
    14     6     7 ar  
    15     6    32 1   
    16     7    33 1   
    17     8    25 1   
    18     8    28 2   
    19     9    10 1   
    20     9    25 1   
    21     9    34 1   
    22     9    35 1   
    23    10    11 1   
    24    10    36 1   
    25    10    37 1   
    26    11    26 1   
    27    11    29 2   
    28    12    13 1   
    29    12    21 1   
    30    12    26 1   
    31    12    38 1   
    32    13    14 1   
    33    13    39 1   
    34    13    40 1   
    35    14    15 1   
    36    14    41 1   
    37    14    42 1   
    38    15    16 1   
    39    15    43 1   
    40    15    44 1   
    41    16    17 ar  
    42    16    21 ar  
    43    17    18 ar  
    44    17    45 1   
    45    18    19 ar  
    46    18    46 1   
    47    19    20 ar  
    48    19    47 1   
    49    20    21 ar  
    50    20    48 1   
    51    25    49 1   
    52    26    50 1   
@<TRIPOS>SUBSTRUCTURE
     1 MLJ         1 TEMP              0 ****  ****    0 ROOT
