@<TRIPOS>MOLECULE
molecule
   50    52     1     0     0
SMALL
bcc


@<TRIPOS>ATOM
      1 C02          0.0000     0.0000     0.0000 c3         1 MLJ       0.796700
      2 C06         -1.8210    -1.3210    -0.7630 ca         1 MLJ       0.147100
      3 C07         -2.6660    -0.3630    -0.2180 ca         1 MLJ      -0.180000
      4 C08         -4.0320    -0.5130    -0.3110 ca         1 MLJ      -0.052000
      5 C09         -4.5670    -1.6310    -0.9560 ca         1 MLJ      -0.169600
      6 C10         -3.7140    -2.5920    -1.5040 ca         1 MLJ      -0.052000
      7 C11         -2.3500    -2.4340    -1.4060 ca         1 MLJ      -0.180000
      8 C12         -6.0310    -1.7960    -1.0590 c          1 MLJ       0.675700
      9 C15         -7.9970    -3.0390    -1.7830 c3         1 MLJ       0.128000
     10 C16         -8.3130    -4.3350    -2.5310 c3         1 MLJ      -0.181400
     11 C17         -9.8070    -4.5040    -2.6350 c          1 MLJ       0.660100
     12 C20        -11.7740    -5.7460    -3.3600 c3         1 MLJ       0.167000
     13 C21        -12.1040    -7.2300    -3.5110 c3         1 MLJ      -0.093400
     14 C22        -13.5980    -7.3620    -3.8320 c3         1 MLJ      -0.077400
     15 C23        -13.8350    -6.8350    -5.2460 c3         1 MLJ      -0.037100
     16 C24        -13.2290    -5.4660    -5.4100 ca         1 MLJ      -0.071300
     17 C25        -13.6580    -4.6930    -6.4810 ca         1 MLJ      -0.135000
     18 C26        -13.1380    -3.4320    -6.6870 ca         1 MLJ      -0.122000
     19 C27        -12.1830    -2.9320    -5.8220 ca         1 MLJ      -0.134000
     20 C28        -11.7570    -3.6990    -4.7560 ca         1 MLJ      -0.112000
     21 C29        -12.2800    -4.9670    -4.5450 ca         1 MLJ      -0.100300
     22 F01          1.3990     0.0000     0.0000 f          1 MLJ      -0.202300
     23 F03         -0.4660     0.0000     1.3180 f          1 MLJ      -0.202300
     24 F04         -0.4660     1.1420    -0.6600 f          1 MLJ      -0.202300
     25 N14         -6.5450    -2.8750    -1.6820 ns         1 MLJ      -0.590900
     26 N19        -10.3220    -5.5820    -3.2580 ns         1 MLJ      -0.578900
     27 O05         -0.4760    -1.1670    -0.6740 os         1 MLJ      -0.339900
     28 O13         -6.7720    -0.9590    -0.5810 o          1 MLJ      -0.598100
     29 O18        -10.5460    -3.6690    -2.1590 o          1 MLJ      -0.602100
     30 H071        -2.2510     0.5030     0.2820 ha         1 MLJ       0.153000
     31 H081        -4.6900     0.2340     0.1140 ha         1 MLJ       0.149500
     32 H101        -4.1260    -3.4600    -2.0050 ha         1 MLJ       0.149500
     33 H111        -1.6870    -3.1790    -1.8300 ha         1 MLJ       0.153000
     34 H152        -8.4190    -2.1990    -2.3230 h1         1 MLJ       0.072700
     35 H151        -8.4260    -3.0810    -0.7890 h1         1 MLJ       0.072700
     36 H161        -7.8840    -4.2930    -3.5240 hc         1 MLJ       0.062700
     37 H162        -7.8920    -5.1750    -1.9910 hc         1 MLJ       0.062700
     38 H201       -12.2440    -5.3690    -2.4600 h1         1 MLJ       0.090700
     39 H211       -11.8830    -7.7490    -2.5860 hc         1 MLJ       0.047700
     40 H212       -11.5200    -7.6520    -4.3200 hc         1 MLJ       0.047700
     41 H222       -14.1640    -6.7600    -3.1320 hc         1 MLJ       0.051700
     42 H221       -13.8760    -8.4090    -3.7940 hc         1 MLJ       0.051700
     43 H231       -13.3600    -7.5090    -5.9490 hc         1 MLJ       0.053700
     44 H232       -14.9030    -6.7620    -5.4130 hc         1 MLJ       0.053700
     45 H251       -14.4070    -5.0840    -7.1590 ha         1 MLJ       0.128000
     46 H261       -13.4770    -2.8350    -7.5260 ha         1 MLJ       0.128000
     47 H271       -11.7710    -1.9430    -5.9790 ha         1 MLJ       0.131000
     48 H281       -11.0080    -3.3070    -4.0780 ha         1 MLJ       0.153000
     49 H141        -5.9350    -3.5760    -2.0540 hn         1 MLJ       0.309500
     50 H191        -9.7120    -6.2790    -3.6370 hn         1 MLJ       0.314500
@<TRIPOS>BOND
     1    28     8 2
     2     9    10 1
     3     9    25 1
     4     8    25 1
     5     8     5 1
     6     4     5 ar
     7     4     3 ar
     8    10    11 1
     9    29    11 2
    10     5     6 ar
    11     3     2 ar
    12    11    26 1
    13    22     1 1
    14     6     7 ar
    15     2     7 ar
    16     2    27 1
    17    24     1 1
    18    26    12 1
    19     1    27 1
    20     1    23 1
    21    12    13 1
    22    12    21 1
    23    13    14 1
    24    20    21 ar
    25    20    19 ar
    26    21    16 ar
    27    14    15 1
    28    19    18 ar
    29    16    15 1
    30    16    17 ar
    31    18    17 ar
    32     3    30 1
    33     4    31 1
    34     6    32 1
    35     7    33 1
    36     9    34 1
    37     9    35 1
    38    10    36 1
    39    10    37 1
    40    12    38 1
    41    13    39 1
    42    13    40 1
    43    14    41 1
    44    14    42 1
    45    15    43 1
    46    15    44 1
    47    17    45 1
    48    18    46 1
    49    19    47 1
    50    20    48 1
    51    25    49 1
    52    26    50 1
@<TRIPOS>SUBSTRUCTURE
     1 MLJ         1 TEMP              0 ****  ****    0 ROOT
