@<TRIPOS>MOLECULE
MLM
   11    10     1     0     0
SMALL
bcc


@<TRIPOS>ATOM
      1 C1         -0.0820    0.5390   -0.5530 c         1 MLM      0.915600
      2 O1          0.9610    0.2610    0.0980 o         1 MLM     -0.838800
      3 O2         -0.5560    1.7100   -0.6580 o         1 MLM     -0.838800
      4 C2         -0.7780   -0.6210   -1.2950 c3        1 MLM     -0.276400
      5 C3         -2.2790   -0.6230   -1.1750 c         1 MLM      0.660100
      6 O3         -2.9230   -1.6550   -0.8650 o         1 MLM     -0.687100
      7 N6         -2.9630    0.5380   -1.4910 n         1 MLM     -0.650000
      8 H2C1       -0.3900   -1.5930   -0.9000 hc        1 MLM      0.059200
      9 H2C2       -0.5020   -0.5370   -2.3770 hc        1 MLM      0.059200
     10 H6N1       -3.9070    0.5950   -1.1940 hn        1 MLM      0.299000
     11 H6N2       -2.4280    1.3850   -1.4410 hn        1 MLM      0.299000
@<TRIPOS>BOND
     1    1    2 1   
     2    1    3 1   
     3    1    4 1   
     4    4    5 1   
     5    4    8 1   
     6    4    9 1   
     7    5    6 2   
     8    5    7 1   
     9    7   10 1   
    10    7   11 1   
@<TRIPOS>SUBSTRUCTURE
     1 MLM         1 TEMP              0 ****  ****    0 ROOT
