@<TRIPOS>MOLECULE
MLN
   57    57     1     0     0
SMALL
bcc


@<TRIPOS>ATOM
      1 O3          1.2240    0.0890   -2.9300 o         1 MLN     -0.794000
      2 P1          2.3200    0.5280   -2.0500 p5        1 MLN      1.421800
      3 O1          3.0660   -0.2530   -1.0640 o         1 MLN     -0.794000
      4 O2          1.9290    2.0050   -1.3910 os        1 MLN     -0.562200
      5 O4          3.4290    1.2220   -3.1450 os        1 MLN     -0.542500
      6 C5          2.7070    3.0760   -1.8420 c3        1 MLN      0.107100
      7 C6          3.6120    2.5300   -2.9440 c         1 MLN      0.717600
      8 C7          3.5280    3.7010   -0.7170 c3        1 MLN     -0.087400
      9 C8          2.6530    4.4380    0.2730 c3        1 MLN     -0.075400
     10 C9          2.2700    5.8220   -0.2090 c3        1 MLN     -0.081400
     11 C10         1.4040    6.5360    0.7970 c3        1 MLN     -0.090100
     12 O11         4.4250    3.1380   -3.6450 o         1 MLN     -0.639500
     13 N12         0.4070    0.7410   -5.7460 n3        1 MLN     -0.923800
     14 C13         1.0150   -0.5580   -5.9480 c3        1 MLN      0.106500
     15 C14         0.0960   -1.6480   -6.5160 c3        1 MLN     -0.088400
     16 C15        -0.7030   -2.3840   -5.4500 c3        1 MLN     -0.059700
     17 C16         0.1720   -3.3320   -4.6540 c3        1 MLN     -0.104100
     18 C17        -1.4340   -1.4470   -4.5130 c3        1 MLN     -0.104100
     19 C18         2.2350   -0.3890   -6.8950 c         1 MLN      0.675100
     20 N19         3.3020    0.3280   -6.3550 n         1 MLN     -0.451100
     21 O20         2.2590   -0.8820   -8.0370 o         1 MLN     -0.619100
     22 C21         4.5110    0.6360   -6.9650 ca        1 MLN      0.142600
     23 C22         5.4440    1.4400   -6.2480 ca        1 MLN     -0.200000
     24 C23         6.6690    1.7700   -6.7970 ca        1 MLN     -0.041000
     25 C24         7.0080    1.3100   -8.0840 ca        1 MLN     -0.242200
     26 C25         6.1020    0.5170   -8.8080 ca        1 MLN     -0.041000
     27 C26         4.8740    0.1850   -8.2590 ca        1 MLN     -0.200000
     28 N27         8.3120    1.6600   -8.6740 no        1 MLN      0.322200
     29 O28         9.0860    2.3410   -8.0480 o         1 MLN     -0.240500
     30 O29         8.5910    1.2620   -9.7780 o         1 MLN     -0.240500
     31 HC51        2.0200    3.8570   -2.2840 h1        1 MLN      0.068700
     32 HC71        4.2770    4.3970   -1.1770 hc        1 MLN      0.056700
     33 HC72        4.0890    2.8940   -0.1770 hc        1 MLN      0.056700
     34 HC81        3.2010    4.5290    1.2480 hc        1 MLN      0.048200
     35 HC82        1.7270    3.8310    0.4630 hc        1 MLN      0.048200
     36 HC91        1.7220    5.7410   -1.1850 hc        1 MLN      0.037200
     37 HC92        3.1980    6.4230   -0.4010 hc        1 MLN      0.037200
     38 H101        0.4640    5.9630    0.9830 hc        1 MLN      0.027367
     39 H102        1.1310    7.5520    0.4240 hc        1 MLN      0.027367
     40 H103        1.9410    6.6500    1.7700 hc        1 MLN      0.027367
     41 HN12        0.3230    0.9300   -4.7630 hn        1 MLN      0.373800
     42 HC13        1.4180   -0.9400   -4.9560 h1        1 MLN      0.116700
     43 H141       -0.6100   -1.2020   -7.2650 hc        1 MLN      0.049700
     44 H142        0.7250   -2.3960   -7.0710 hc        1 MLN      0.049700
     45 HC15       -1.4710   -3.0040   -6.0000 hc        1 MLN      0.024700
     46 H161       -0.4610   -3.9630   -3.9850 hc        1 MLN      0.041200
     47 H162        0.7480   -4.0020   -5.3360 hc        1 MLN      0.041200
     48 H163        0.8910   -2.7620   -4.0150 hc        1 MLN      0.041200
     49 H171       -2.1470   -2.0260   -3.8780 hc        1 MLN      0.041200
     50 H172       -0.7110   -0.9190   -3.8370 hc        1 MLN      0.041200
     51 H173       -2.0150   -0.6890   -5.0910 hc        1 MLN      0.041200
     52 HN19        3.1660    0.7190   -5.4380 hn        1 MLN      0.363500
     53 HC22        5.1890    1.8140   -5.2350 ha        1 MLN      0.188000
     54 HC23        7.3770    2.3940   -6.2270 ha        1 MLN      0.159000
     55 HC25        6.3660    0.1570   -9.8170 ha        1 MLN      0.159000
     56 HC26        4.1790   -0.4360   -8.8490 ha        1 MLN      0.188000
     57 H122       -0.4940    0.7850   -6.1750 hn        1 MLN      0.373800
@<TRIPOS>BOND
     1    1    2 1   
     2    2    3 1   
     3    2    4 1   
     4    2    5 1   
     5    4    6 1   
     6    5    7 1   
     7    6    7 1   
     8    6    8 1   
     9    6   31 1   
    10    7   12 2   
    11    8    9 1   
    12    8   32 1   
    13    8   33 1   
    14    9   10 1   
    15    9   34 1   
    16    9   35 1   
    17   10   11 1   
    18   10   36 1   
    19   10   37 1   
    20   11   38 1   
    21   11   39 1   
    22   11   40 1   
    23   13   14 1   
    24   13   41 1   
    25   13   57 1   
    26   14   15 1   
    27   14   19 1   
    28   14   42 1   
    29   15   16 1   
    30   15   43 1   
    31   15   44 1   
    32   16   17 1   
    33   16   18 1   
    34   16   45 1   
    35   17   46 1   
    36   17   47 1   
    37   17   48 1   
    38   18   49 1   
    39   18   50 1   
    40   18   51 1   
    41   19   20 1   
    42   19   21 2   
    43   20   22 1   
    44   20   52 1   
    45   22   23 ar  
    46   22   27 ar  
    47   23   24 ar  
    48   23   53 1   
    49   24   25 ar  
    50   24   54 1   
    51   25   26 ar  
    52   25   28 1   
    53   26   27 ar  
    54   26   55 1   
    55   27   56 1   
    56   28   29 1   
    57   28   30 1   
@<TRIPOS>SUBSTRUCTURE
     1 MLN         1 TEMP              0 ****  ****    0 ROOT
