@<TRIPOS>MOLECULE
molecule
   56    56     1     0     0
SMALL
bcc


@<TRIPOS>ATOM
      1 O3           0.0000     0.0000     0.0000 o          1 MLN      -0.883167
      2 P1           1.6170     0.0000     0.0000 p5         1 MLN       1.119900
      3 O1           2.2590     0.0000     1.3570 o          1 MLN      -0.883167
      4 O2           2.0030    -1.2600    -0.9380 os         1 MLN      -0.504200
      5 O4           1.9890     1.2690    -0.9310 o          1 MLN      -0.883167
      6 C5           1.6870    -2.5650    -0.4800 c3         1 MLN       0.146100
      7 C6           2.4150    -2.8030     0.8370 c          1 MLN       0.638100
      8 C7           2.0810    -3.6100    -1.5300 c3         1 MLN      -0.066400
      9 C8           1.3390    -3.4000    -2.8550 c3         1 MLN      -0.072400
     10 C9           1.6970    -4.4400    -3.9200 c3         1 MLN      -0.084400
     11 C10          0.9080    -4.2820    -5.2110 c3         1 MLN      -0.086100
     12 O11          3.5200    -2.3210     1.0770 o          1 MLN      -0.536100
     13 N12          1.6850    -3.5920     1.7130 ns         1 MLN      -0.592900
     14 C13          2.1570    -3.9410     3.0320 c3         1 MLN       0.053700
     15 C14          1.0040    -4.1980     4.0120 c3         1 MLN      -0.075400
     16 C15          0.0940    -2.9800     4.2730 c3         1 MLN      -0.063700
     17 C16          0.9300    -1.8170     4.8130 c3         1 MLN      -0.096100
     18 C17         -0.6570    -2.5350     3.0160 c3         1 MLN      -0.096100
     19 C18          3.0180    -5.1970     2.8880 c          1 MLN       0.658100
     20 N19          4.0490    -5.2070     3.8250 ns         1 MLN      -0.484100
     21 O20          2.7580    -6.0710     2.0660 o          1 MLN      -0.571100
     22 C21          5.0450    -6.1970     4.0020 ca         1 MLN       0.144600
     23 C22          5.9940    -6.0320     4.9980 ca         1 MLN      -0.195500
     24 C23          6.9750    -7.0070     5.1730 ca         1 MLN      -0.034000
     25 C24          6.9930    -8.1340     4.3500 ca         1 MLN      -0.227200
     26 C25          6.0300    -8.2840     3.3530 ca         1 MLN      -0.034000
     27 C26          5.0490    -7.3090     3.1780 ca         1 MLN      -0.195500
     28 N27          7.9930    -9.1260     4.5290 no         1 MLN       0.288200
     29 O28          8.8500    -8.9720     5.4310 o          1 MLN      -0.240500
     30 O29          7.9920   -10.1320     3.7780 o          1 MLN      -0.240500
     31 HC51         0.6200    -2.6280    -0.3070 h1         1 MLN       0.042700
     32 HC71         3.1470    -3.5440    -1.7090 hc         1 MLN       0.023700
     33 HC72         1.8490    -4.5970    -1.1490 hc         1 MLN       0.023700
     34 HC81         0.2730    -3.4480    -2.6670 hc         1 MLN       0.060700
     35 HC82         1.5810    -2.4150    -3.2360 hc         1 MLN       0.060700
     36 HC91         2.7530    -4.3540    -4.1460 hc         1 MLN       0.021700
     37 HC92         1.5080    -5.4270    -3.5170 hc         1 MLN       0.021700
     38 H101         1.2350    -5.0270    -5.9270 hc         1 MLN       0.022700
     39 H102        -0.1480    -4.4150    -5.0080 hc         1 MLN       0.022700
     40 H103         1.0750    -3.2920    -5.6180 hc         1 MLN       0.022700
     41 HN12         0.7930    -3.9380     1.4170 hn         1 MLN       0.319500
     42 HC13         2.7710    -3.1340     3.4130 h1         1 MLN       0.099700
     43 H141         0.3940    -5.0020     3.6170 hc         1 MLN       0.027200
     44 H142         1.4240    -4.5190     4.9570 hc         1 MLN       0.027200
     45 HC15        -0.6350    -3.2550     5.0250 hc         1 MLN       0.014700
     46 H161         0.2710    -1.0250     5.1500 hc         1 MLN       0.049533
     47 H162         1.5340    -2.1620     5.6440 hc         1 MLN       0.049533
     48 H163         1.5750    -1.4410     4.0290 hc         1 MLN       0.049533
     49 H171        -0.0110    -1.9090     2.4130 hc         1 MLN       0.049533
     50 H172        -0.9520    -3.4060     2.4440 hc         1 MLN       0.049533
     51 H173        -1.5390    -1.9750     3.3020 hc         1 MLN       0.049533
     52 HN19         4.0910    -4.4230     4.4450 hn         1 MLN       0.331500
     53 HC22         5.9750    -5.1540     5.6330 ha         1 MLN       0.172000
     54 HC23         7.7240    -6.8900     5.9470 ha         1 MLN       0.159000
     55 HC25         6.0450    -9.1590     2.7130 ha         1 MLN       0.159000
     56 HC26         4.2990    -7.4200     2.4050 ha         1 MLN       0.172000
@<TRIPOS>BOND
     1     1     2 1
     2     2     3 1
     3     2     4 1
     4     2     5 1
     5     4     6 1
     6     6     7 1
     7     6     8 1
     8     6    31 1
     9     7    12 2
    10     7    13 1
    11     8     9 1
    12     8    32 1
    13     8    33 1
    14     9    10 1
    15     9    34 1
    16     9    35 1
    17    10    11 1
    18    10    36 1
    19    10    37 1
    20    11    38 1
    21    11    39 1
    22    11    40 1
    23    13    14 1
    24    13    41 1
    25    14    15 1
    26    14    19 1
    27    14    42 1
    28    15    16 1
    29    15    43 1
    30    15    44 1
    31    16    17 1
    32    16    18 1
    33    16    45 1
    34    17    46 1
    35    17    47 1
    36    17    48 1
    37    18    49 1
    38    18    50 1
    39    18    51 1
    40    19    20 1
    41    19    21 2
    42    20    22 1
    43    20    52 1
    44    22    23 ar
    45    22    27 ar
    46    23    24 ar
    47    23    53 1
    48    24    25 ar
    49    24    54 1
    50    25    26 ar
    51    25    28 1
    52    26    27 ar
    53    26    55 1
    54    27    56 1
    55    28    29 1
    56    28    30 1
@<TRIPOS>SUBSTRUCTURE
     1 MLN         1 TEMP              0 ****  ****    0 ROOT
