@<TRIPOS>MOLECULE
molecule
   38    39     1     0     0
SMALL
bcc


@<TRIPOS>ATOM
      1 CAA          0.0000     0.0000     0.0000 c2         1 MLO      -0.225000
      2 CAB          9.3500     2.4200     1.4100 c2         1 MLO      -0.225000
      3 OAD          6.1270    -3.4570    -1.4080 oh         1 MLO      -0.494600
      4 CAE          1.3090     0.0000     0.0000 c2         1 MLO      -0.165200
      5 CAF          9.5990     1.3910     0.6360 c2         1 MLO      -0.165200
      6 CAG          3.4700    -3.4640     1.8440 ca         1 MLO      -0.191500
      7 CAH          8.2820    -2.4670    -1.2390 ca         1 MLO      -0.191500
      8 CAI          2.6030    -2.3880     1.8260 ca         1 MLO      -0.097000
      9 CAJ          9.1570    -1.6150    -0.5900 ca         1 MLO      -0.097000
     10 CAK          4.3060    -1.0080     0.8550 ca         1 MLO      -0.091000
     11 CAL          7.4610    -1.0620     1.0100 ca         1 MLO      -0.091000
     12 CAM          2.0630     0.0000     1.3050 c3         1 MLO      -0.000900
     13 CAN          9.7090     0.0110     1.2300 c3         1 MLO      -0.000900
     14 CAO          4.7650    -3.3200     1.3730 ca         1 MLO       0.142600
     15 CAP          6.9890    -2.6240    -0.7680 ca         1 MLO       0.142600
     16 CAQ          3.0200    -1.1640     1.3330 ca         1 MLO      -0.104300
     17 CAR          8.7470    -0.9150     0.5300 ca         1 MLO      -0.104300
     18 CAS          5.1910    -2.0840     0.8790 cp         1 MLO      -0.050000
     19 CAT          6.5740    -1.9210     0.3670 cp         1 MLO      -0.050000
     20 HAA         -0.5420     0.0000    -0.9380 ha         1 MLO       0.111750
     21 HAAA        -0.5420     0.0000     0.9380 ha         1 MLO       0.111750
     22 HAB          9.2710     3.4120     0.9830 ha         1 MLO       0.111750
     23 HABA         9.2230     2.2770     2.4760 ha         1 MLO       0.111750
     24 HOAC         5.6160    -4.7690     2.2490 ho         1 MLO       0.415000
     25 HOAD         6.1310    -3.2640    -2.3310 ho         1 MLO       0.415000
     26 HAE          1.8510     0.0000    -0.9380 ha         1 MLO       0.126500
     27 HAF          9.7260     1.5340    -0.4300 ha         1 MLO       0.126500
     28 HAG          3.1380    -4.4200     2.2310 ha         1 MLO       0.135000
     29 HAH          8.6090    -3.0130    -2.1160 ha         1 MLO       0.135000
     30 HAI          1.5920    -2.5040     2.1970 ha         1 MLO       0.131500
     31 HAJ         10.1670    -1.4950    -0.9610 ha         1 MLO       0.131500
     32 HAK          4.6290    -0.0480     0.4720 ha         1 MLO       0.138000
     33 HAL          7.1440    -0.5130     1.8890 ha         1 MLO       0.138000
     34 HAM          2.6180     0.9260     1.4020 hc         1 MLO       0.053200
     35 HAMA         1.3630    -0.0890     2.1270 hc         1 MLO       0.053200
     36 HAN          9.4680     0.0520     2.2850 hc         1 MLO       0.053200
     37 HANA        10.7200    -0.3570     1.1040 hc         1 MLO       0.053200
     38 OAC          5.6190    -4.3780     1.3910 oh         1 MLO      -0.494600
@<TRIPOS>BOND
     1     1     4 2
     2     1    20 1
     3     1    21 1
     4     2     5 2
     5     2    22 1
     6     2    23 1
     7    38    14 1
     8    38    24 1
     9     3    15 1
    10     3    25 1
    11    12     4 1
    12     4    26 1
    13     5    13 1
    14     5    27 1
    15    14     6 ar
    16     6     8 ar
    17     6    28 1
    18     9     7 ar
    19     7    15 ar
    20     7    29 1
    21    16     8 ar
    22     8    30 1
    23     9    17 ar
    24     9    31 1
    25    18    10 ar
    26    10    16 ar
    27    10    32 1
    28    17    11 ar
    29    11    19 ar
    30    11    33 1
    31    16    12 1
    32    12    34 1
    33    12    35 1
    34    13    17 1
    35    13    36 1
    36    13    37 1
    37    18    14 ar
    38    15    19 ar
    39    19    18 1
@<TRIPOS>SUBSTRUCTURE
     1 MLO         1 TEMP              0 ****  ****    0 ROOT
