@<TRIPOS>MOLECULE
MLO
   38    39     1     0     0
SMALL
bcc


@<TRIPOS>ATOM
      1 CAA         0.3080    0.5230   -0.5640 c1        1 MLO     -0.045000
      2 CAB         9.7680    2.5090    1.8660 c2        1 MLO     -0.225000
      3 OAD         6.1680   -3.3750   -1.4560 oh        1 MLO     -0.316000
      4 CAE         1.3260   -0.4430   -0.2300 c3        1 MLO     -0.250000
      5 CAF         9.7460    1.5810    0.9120 c2        1 MLO     -0.155000
      6 CAG         3.6620   -3.6510    2.1370 c1        1 MLO     -0.118000
      7 CAH         8.0940   -2.0470   -1.5190 c2        1 MLO     -0.088000
      8 CAI         2.6830   -2.6440    2.0910 c2        1 MLO     -0.242000
      9 CAJ         8.8000   -1.1610   -0.8380 c1        1 MLO     -0.164000
     10 CAK         4.1900   -1.1980    0.8240 c2        1 MLO     -0.190000
     11 CAL         7.2130   -0.6510    0.7480 c2        1 MLO     -0.099000
     12 CAM         1.8220   -0.4660    1.2070 c3        1 MLO     -0.182000
     13 CAN         9.6270    0.1230    1.1830 c3        1 MLO     -0.084000
     14 CAO         5.0420   -3.3180    1.7530 c3        1 MLO      0.003000
     15 CAP         7.1390   -2.7970   -0.6060 c3        1 MLO      0.103000
     16 CAQ         2.8970   -1.4720    1.4060 c2        1 MLO      0.066000
     17 CAR         8.6210   -0.5180    0.3120 c2        1 MLO     -0.036000
     18 CAS         5.2250   -2.0720    0.9270 c2        1 MLO      0.006000
     19 CAT         6.5360   -1.7670    0.3700 c2        1 MLO     -0.118000
     20 HAA         0.9080   -1.4560   -0.5130 hc        1 MLO      0.158000
     21 HAAA       -0.0560    1.1740    0.2460 ha        1 MLO      0.041000
     22 HAB         9.8830    3.5770    1.6390 ha        1 MLO      0.112500
     23 HABA        9.6790    2.2690    2.9340 ha        1 MLO      0.112500
     24 HOAC        5.1910   -5.2100    1.3700 ho        1 MLO      0.238000
     25 HOAD        5.6250   -3.9560   -0.9050 ho        1 MLO      0.224000
     26 HAE         2.1910   -0.2650   -0.9370 hc        1 MLO      0.158000
     27 HAF         9.8350    1.8500   -0.1540 ha        1 MLO      0.130000
     28 HAG         5.5690   -3.1100    2.7500 h1        1 MLO      0.148000
     29 HAH         7.6400   -3.5940    0.0150 h1        1 MLO      0.117000
     30 HAI         1.7020   -2.8570    2.5460 ha        1 MLO      0.153000
     31 HAJ         8.0330   -2.1960   -2.6000 ha        1 MLO      0.174000
     32 HAK         4.3120   -0.2480    0.2770 ha        1 MLO      0.148000
     33 HAL         6.8080    0.0880    1.4500 ha        1 MLO      0.143000
     34 HAM         2.2190    0.5500    1.4800 hc        1 MLO      0.103000
     35 HAMA        0.9610   -0.6830    1.8940 hc        1 MLO      0.103000
     36 HAN         9.3570   -0.0570    2.2600 hc        1 MLO      0.101000
     37 HANA       10.6320   -0.3530    1.0020 hc        1 MLO      0.101000
     38 OAC         5.7100   -4.4210    1.1520 oh        1 MLO     -0.329000
@<TRIPOS>BOND
     1    1    4 1   
     2    1   21 1   
     3    2    5 1   
     4    2   22 1   
     5    2   23 1   
     6    3   15 1   
     7    3   25 1   
     8    4   12 1   
     9    4   20 1   
    10    4   26 1   
    11    5   13 1   
    12    5   27 1   
    13    6    8 1   
    14    6   14 1   
    15    7    9 1   
    16    7   15 1   
    17    7   31 1   
    18    8   16 1   
    19    8   30 1   
    20    9   17 1   
    21   10   16 1   
    22   10   18 1   
    23   10   32 1   
    24   11   17 1   
    25   11   19 1   
    26   11   33 1   
    27   12   16 1   
    28   12   34 1   
    29   12   35 1   
    30   13   17 1   
    31   13   36 1   
    32   13   37 1   
    33   14   18 1   
    34   14   28 1   
    35   14   38 1   
    36   15   19 1   
    37   15   29 1   
    38   18   19 1   
    39   24   38 1   
@<TRIPOS>SUBSTRUCTURE
     1 MLO         1 TEMP              0 ****  ****    0 ROOT
