@<TRIPOS>MOLECULE
MLP
   14    14     1     0     0
SMALL
bcc


@<TRIPOS>ATOM
      1 C1          0.0430   -0.0400    0.0210 cx        1 MLP     -0.125400
      2 C2          1.5470   -0.0040    0.0570 cx        1 MLP     -0.125400
      3 C3          0.7610    0.0630    1.3270 cx        1 MLP     -0.044000
      4 N4          0.7130    1.1910    2.2100 n3        1 MLP     -0.877800
      5 P5          0.7750   -1.4580    2.2390 p5        1 MLP      1.212700
      6 O6          2.0180   -1.3080    3.0940 o         1 MLP     -0.956833
      7 O7          0.8270   -2.5650    1.2080 o         1 MLP     -0.956833
      8 O8         -0.5130   -1.3690    3.0330 o         1 MLP     -0.956833
      9 H11        -0.4530   -1.0140   -0.1590 hc        1 MLP      0.038200
     10 H12        -0.4970    0.8190   -0.4130 hc        1 MLP      0.038200
     11 H21         2.0660    0.8800   -0.3500 hc        1 MLP      0.038200
     12 H22         2.0970   -0.9530   -0.0970 hc        1 MLP      0.038200
     13 HN41       -0.1030    1.0210    2.7850 hn        1 MLP      0.339300
     14 HN42        1.5070    1.0590    2.8240 hn        1 MLP      0.339300
@<TRIPOS>BOND
     1    1    2 1   
     2    1    3 1   
     3    1    9 1   
     4    1   10 1   
     5    2    3 1   
     6    2   11 1   
     7    2   12 1   
     8    3    4 1   
     9    3    5 1   
    10    4   13 1   
    11    4   14 1   
    12    5    6 1   
    13    5    7 1   
    14    5    8 1   
@<TRIPOS>SUBSTRUCTURE
     1 MLP         1 TEMP              0 ****  ****    0 ROOT
