@<TRIPOS>MOLECULE
MLT
   13    12     1     0     0
SMALL
bcc


@<TRIPOS>ATOM
      1 C1          0.0490   -0.2150   -0.0790 c         1 MLT      0.881600
      2 O1         -0.6380    0.1230    0.9390 o         1 MLT     -0.876300
      3 O2         -0.4840   -0.6470   -1.1410 o         1 MLT     -0.876300
      4 C2          1.5870   -0.1020    0.0330 c3        1 MLT      0.044100
      5 O3          1.9630   -0.1500    1.4080 oh        1 MLT     -0.640800
      6 C3          2.0880    1.1740   -0.6270 c3        1 MLT     -0.184400
      7 C4          3.5760    1.1960   -0.9800 c         1 MLT      0.909600
      8 O4          4.1400    0.1730   -1.4720 o         1 MLT     -0.886800
      9 O5          4.2090    2.2890   -0.8180 o         1 MLT     -0.886800
     10 H2          2.0870   -0.9910   -0.4380 h1        1 MLT      0.070700
     11 HO3         1.2700    0.3220    1.8910 ho        1 MLT      0.396000
     12 H31         1.8640    2.0450    0.0390 hc        1 MLT      0.025700
     13 H32         1.5200    1.3100   -1.5840 hc        1 MLT      0.025700
@<TRIPOS>BOND
     1    1    2 1   
     2    1    3 1   
     3    1    4 1   
     4    4    5 1   
     5    4    6 1   
     6    4   10 1   
     7    5   11 1   
     8    6    7 1   
     9    6   12 1   
    10    6   13 1   
    11    7    8 1   
    12    7    9 1   
@<TRIPOS>SUBSTRUCTURE
     1 MLT         1 TEMP              0 ****  ****    0 ROOT
