@<TRIPOS>MOLECULE
MM0
   62    66     1     0     0
SMALL
bcc


@<TRIPOS>ATOM
      1 C1           0.0000     0.0000     0.0000 ca         1 MM0      -0.092300
      2 C2           1.3930     0.0000     0.0000 ca         1 MM0      -0.066000
      3 C3          -0.7120     0.0010     1.1600 ca         1 MM0      -0.074000
      4 C5           0.0480     0.0030     4.7780 ca         1 MM0      -0.216600
      5 C6           1.4640     0.0020     4.7130 ca         1 MM0       0.398600
      6 C8           1.6380     0.0040     7.1540 ca         1 MM0      -0.085000
      7 C9          -0.4240     0.0030     8.5210 ca         1 MM0      -0.045000
      8 C10         -2.5180     0.0040     9.8000 ca         1 MM0      -0.079000
      9 C12         -4.6030     0.0050     8.6050 ca         1 MM0      -0.068000
     10 C13         -3.9890     0.0050     7.3920 ca         1 MM0      -0.147300
     11 C4           2.1090     0.0000     1.1550 ca         1 MM0      -0.148300
     12 C7           2.2440     0.0020     5.9520 ca         1 MM0      -0.141300
     13 C11         -3.8790     0.0030     9.7960 ca         1 MM0      -0.087300
     14 N1           2.0980     0.0010     3.5460 nb         1 MM0      -0.562000
     15 C14         -0.7110     0.0020     3.6140 ca         1 MM0      -0.017000
     16 C15         -0.0300     0.0010     2.3890 ca         1 MM0      -0.157300
     17 N2          -0.9750    -1.3770    -1.7490 n7         1 MM0      -0.583200
     18 C16          1.4350     0.0010     2.3920 ca         1 MM0       0.383600
     19 C17         -1.6920    -1.4100    -3.0310 c3         1 MM0       0.141800
     20 C18         -1.9230    -2.8630    -3.4490 c3         1 MM0      -0.029400
     21 N3          -4.8610     1.3910    11.5320 n7         1 MM0      -0.583200
     22 C19         -2.6700    -2.8980    -4.7840 c3         1 MM0       0.007900
     23 C20         -4.6190     0.0040    11.1070 c3         1 MM0       0.199100
     24 C21         -5.5820     1.4310    12.8100 c3         1 MM0       0.141800
     25 C22         -5.8150     2.8870    13.2190 c3         1 MM0      -0.029400
     26 C23         -6.5660     2.9300    14.5510 c3         1 MM0       0.007900
     27 C           -0.7370     0.0060    -1.3150 c3         1 MM0       0.199100
     28 C4A          0.1800     0.0010     7.2650 ca         1 MM0      -0.147300
     29 C9A         -0.6200     0.0030     6.0930 ca         1 MM0       0.413600
     30 C10A        -1.8230     0.0020     8.5780 ca         1 MM0      -0.148300
     31 C8A         -2.5830     0.0040     7.3250 ca         1 MM0       0.380600
     32 N           -1.9420     0.0040     6.1580 nb         1 MM0      -0.564000
     33 H           -0.1420     0.5200    -2.0600 h1         1 MM0       0.010200
     34 HA          -1.6850     0.5150    -1.1950 h1         1 MM0       0.010200
     35 H2           1.9190    -0.0010    -0.9470 ha         1 MM0       0.109000
     36 H14         -1.7590    -0.2670     3.6510 ha         1 MM0       0.132000
     37 H20         -4.0250    -0.5040    11.8570 h1         1 MM0       0.010700
     38 H9           0.1540     0.2680     9.3990 ha         1 MM0       0.115000
     39 H17         -2.6460    -0.9090    -2.9250 h1         1 MM0       0.006200
     40 H20A        -5.5660    -0.5080    10.9880 h1         1 MM0       0.010700
     41 HN3         -3.9860     1.8680    11.6270 hn         1 MM0       0.254800
     42 H21         -4.9950     0.9320    13.5720 h1         1 MM0       0.006200
     43 H22         -6.4020     3.3860    12.4570 hc         1 MM0       0.018200
     44 H3          -1.7950     0.0010     1.1360 ha         1 MM0       0.110000
     45 H4           3.1920     0.0000     1.1250 ha         1 MM0       0.119000
     46 H7           3.3260     0.0010     5.9010 ha         1 MM0       0.117000
     47 H8           2.2400     0.0080     8.0540 ha         1 MM0       0.107000
     48 H10         -1.9750     0.0030    10.7380 ha         1 MM0       0.109000
     49 H12         -5.6860     0.0040     8.6480 ha         1 MM0       0.109000
     50 H13         -4.5780     0.0070     6.4830 ha         1 MM0       0.118000
     51 HN2         -1.5120    -1.8560    -1.0540 hn         1 MM0       0.255800
     52 H17A        -1.1020    -0.9070    -3.7870 h1         1 MM0       0.006200
     53 H18         -0.9680    -3.3640    -3.5560 hc         1 MM0       0.017700
     54 H18A        -2.5120    -3.3670    -2.6920 hc         1 MM0       0.017700
     55 H19         -2.0810    -2.3930    -5.5400 hc         1 MM0       0.000700
     56 H19A        -2.8320    -3.9270    -5.0800 hc         1 MM0       0.000700
     57 H19B        -3.6250    -2.3980    -4.6760 hc         1 MM0       0.000700
     58 H21A        -6.5360     0.9290    12.7030 h1         1 MM0       0.006200
     59 H22A        -4.8610     3.3890    13.3260 hc         1 MM0       0.018200
     60 H23         -6.7320     3.9610    14.8390 hc         1 MM0       0.001033
     61 H23A        -7.5200     2.4270    14.4440 hc         1 MM0       0.001033
     62 H23B        -5.9790     2.4320    15.3130 hc         1 MM0       0.001033
@<TRIPOS>BOND
     1     1     2 ar  
     2     1     3 ar  
     3     1    27 1   
     4     2    11 ar  
     5     2    35 1   
     6     3    16 ar  
     7     3    44 1   
     8     4     5 ar  
     9     4    15 ar  
    10     4    29 ar  
    11     5    12 ar  
    12     5    14 ar  
    13     6    12 ar  
    14     6    28 ar  
    15     6    47 1   
    16     7    28 ar  
    17     7    30 ar  
    18     7    38 1   
    19     8    13 ar  
    20     8    30 ar  
    21     8    48 1   
    22     9    10 ar  
    23     9    13 ar  
    24     9    49 1   
    25    10    31 ar  
    26    10    50 1   
    27    11    18 ar  
    28    11    45 1   
    29    12    46 1   
    30    13    23 1   
    31    14    18 ar  
    32    15    16 ar  
    33    15    36 1   
    34    16    18 ar  
    35    17    19 1   
    36    17    27 1   
    37    17    51 1   
    38    19    20 1   
    39    19    39 1   
    40    19    52 1   
    41    20    22 1   
    42    20    53 1   
    43    20    54 1   
    44    21    23 1   
    45    21    24 1   
    46    21    41 1   
    47    22    55 1   
    48    22    56 1   
    49    22    57 1   
    50    23    37 1   
    51    23    40 1   
    52    24    25 1   
    53    24    42 1   
    54    24    58 1   
    55    25    26 1   
    56    25    43 1   
    57    25    59 1   
    58    26    60 1   
    59    26    61 1   
    60    26    62 1   
    61    27    33 1   
    62    27    34 1   
    63    28    29 ar  
    64    29    32 ar  
    65    30    31 ar  
    66    31    32 ar  
@<TRIPOS>SUBSTRUCTURE
     1 MM0         1 TEMP              0 ****  ****    0 ROOT
