@<TRIPOS>MOLECULE
MM3
   46    47     1     0     0
SMALL
bcc


@<TRIPOS>ATOM
      1 C1           0.0000     0.0000     0.0000 ca         1 MM3      -0.197500
      2 C2           1.3820     0.0000     0.0000 ca         1 MM3       0.049000
      3 C3           2.0740     0.0000     1.1960 ca         1 MM3      -0.212500
      4 C4           1.3810    -0.0010     2.3970 ca         1 MM3       0.187100
      5 C5          -0.0060    -0.0060     2.3940 ca         1 MM3      -0.212500
      6 C6          -0.6930     0.0010     1.1960 ca         1 MM3       0.049000
      7 O7           2.0590     0.0010     3.5740 os         1 MM3      -0.279900
      8 C8           1.0800     0.0010     4.6150 c3         1 MM3       0.216700
      9 S9          -0.8800     0.0010    -1.5270 sy         1 MM3       1.059200
     10 O10         -2.1660     0.5260    -1.2310 o          1 MM3      -0.589300
     11 O11          0.0210     0.5260    -2.4900 o          1 MM3      -0.589300
     12 N12         -1.1270    -1.5800    -1.9550 n3         1 MM3      -0.473500
     13 C13         -0.1340    -2.2610    -2.7810 c3         1 MM3       0.151500
     14 C14          0.2210    -3.6910    -2.3400 c3         1 MM3       0.036100
     15 S15          0.4130    -3.7710    -0.5520 ss         1 MM3      -0.383200
     16 C16         -1.3140    -4.0140    -0.0540 c3         1 MM3       0.076700
     17 C17         -2.1230    -2.8030    -0.0790 c3         1 MM3      -0.079400
     18 C18         -2.3270    -2.2560    -1.5090 c3         1 MM3       0.187800
     19 C19          1.5300    -4.1170    -3.0080 c3         1 MM3      -0.022600
     20 C20         -0.8980    -4.6390    -2.7710 c3         1 MM3      -0.022600
     21 C           -0.6490    -2.3190    -4.1960 c          1 MM3       0.560100
     22 NA           0.2060    -2.1980    -5.2310 ns         1 MM3      -0.047400
     23 OA          -0.2780    -2.2510    -6.5600 oh         1 MM3      -0.440100
     24 OB          -1.8340    -2.4720    -4.4040 o          1 MM3      -0.621100
     25 H21          1.9230     0.0000    -0.9380 ha         1 MM3       0.120000
     26 H31          3.1580     0.0020     1.1950 ha         1 MM3       0.129500
     27 H51         -0.5500    -0.0060     3.3310 ha         1 MM3       0.129500
     28 H61         -1.7760    -0.0010     1.1940 ha         1 MM3       0.120000
     29 H81          0.4600     0.8850     4.5270 h1         1 MM3       0.005033
     30 H82          1.5770     0.0030     5.5780 h1         1 MM3       0.005033
     31 H83          0.4610    -0.8840     4.5290 h1         1 MM3       0.005033
     32 H131         0.7740    -1.6700    -2.7700 h1         1 MM3       0.058700
     33 H161        -1.3260    -4.4120     0.9530 h1         1 MM3       0.054200
     34 H162        -1.7630    -4.7390    -0.7220 h1         1 MM3       0.054200
     35 H171        -3.0920    -3.0220     0.3520 hc         1 MM3       0.035200
     36 H172        -1.6320    -2.0440     0.5180 hc         1 MM3       0.035200
     37 H181        -2.5450    -3.0790    -2.1790 h1         1 MM3       0.060200
     38 H182        -3.1540    -1.5570    -1.5100 h1         1 MM3       0.060200
     39 H191         2.2210    -3.2820    -3.0140 hc         1 MM3       0.028700
     40 H192         1.3310    -4.4270    -4.0270 hc         1 MM3       0.028700
     41 H193         1.9640    -4.9420    -2.4580 hc         1 MM3       0.028700
     42 H201        -1.8580    -4.1720    -2.5880 hc         1 MM3       0.028700
     43 H202        -0.8310    -5.5600    -2.2040 hc         1 MM3       0.028700
     44 H203        -0.7990    -4.8590    -3.8280 hc         1 MM3       0.028700
     45 HNA          1.1790    -2.0380    -5.0590 hn         1 MM3       0.160500
     46 HOA          0.4090    -1.9990    -7.1550 ho         1 MM3       0.394000
@<TRIPOS>BOND
     1     1     2 ar  
     2     1     6 ar  
     3     1     9 1   
     4     2     3 ar  
     5     2    25 1   
     6     3     4 ar  
     7     3    26 1   
     8     4     5 ar  
     9     4     7 1   
    10     5     6 ar  
    11     5    27 1   
    12     6    28 1   
    13     7     8 1   
    14     8    29 1   
    15     8    30 1   
    16     8    31 1   
    17     9    10 2   
    18     9    11 2   
    19     9    12 1   
    20    12    13 1   
    21    12    18 1   
    22    13    14 1   
    23    13    21 1   
    24    13    32 1   
    25    14    15 1   
    26    14    19 1   
    27    14    20 1   
    28    15    16 1   
    29    16    17 1   
    30    16    33 1   
    31    16    34 1   
    32    17    18 1   
    33    17    35 1   
    34    17    36 1   
    35    18    37 1   
    36    18    38 1   
    37    19    39 1   
    38    19    40 1   
    39    19    41 1   
    40    20    42 1   
    41    20    43 1   
    42    20    44 1   
    43    21    22 1   
    44    21    24 2   
    45    22    23 1   
    46    22    45 1   
    47    23    46 1   
@<TRIPOS>SUBSTRUCTURE
     1 MM3         1 TEMP              0 ****  ****    0 ROOT
