@<TRIPOS>MOLECULE
MM9
   70    72     1     0     0
SMALL
bcc


@<TRIPOS>ATOM
      1 C1           0.0000     0.0000     0.0000 c3         1 MM9      -0.037700
      2 C2           1.5310     0.0000     0.0000 c3         1 MM9      -0.041900
      3 C3           2.0400     0.0000     1.4430 c3         1 MM9      -0.020900
      4 C4           1.5300     1.2500     2.1630 c3         1 MM9      -0.026400
      5 C5           0.0010     1.2510     2.1630 c3         1 MM9      -0.020900
      6 C6          -0.5100     1.2510     0.7210 c3         1 MM9      -0.041900
      7 N7          -1.9720    -0.1370    -1.4450 n7         1 MM9      -0.531200
      8 C8          -0.5100     0.0010    -1.4420 c3         1 MM9       0.053500
      9 C9          -0.1260     1.2950    -2.1110 c          1 MM9       0.622100
     10 O0          -0.9060     2.2230    -2.1290 o          1 MM9      -0.575100
     11 N11          1.0850     1.4220    -2.6900 nj         1 MM9      -0.190800
     12 C12          1.8350     2.5000    -3.3510 cy         1 MM9      -0.034300
     13 C13          0.9740     3.3930    -4.2070 c          1 MM9       0.558100
     14 O14         -0.2180     3.1830    -4.2950 o          1 MM9      -0.569100
     15 N15          1.5270     4.4240    -4.8740 ns         1 MM9      -0.220900
     16 C16          0.6900     5.2930    -5.7060 c3         1 MM9       0.101300
     17 C17          1.5440     6.3610    -6.3370 ca         1 MM9      -0.052300
     18 C18          2.1320     6.1340    -7.5690 ca         1 MM9      -0.055000
     19 C19          2.9160     7.1080    -8.1520 ca         1 MM9      -0.073000
     20 C20          3.1170     8.3230    -7.4980 ca         1 MM9      -0.231900
     21 C21          2.5220     8.5460    -6.2560 ca         1 MM9      -0.073000
     22 C22          1.7350     7.5660    -5.6860 ca         1 MM9      -0.055000
     23 C23          3.9580     9.3710    -8.1170 ce         1 MM9       0.213800
     24 N24          4.5120     9.1610    -9.2770 n2         1 MM9      -0.489100
     25 N25          4.1540    10.5710    -7.4680 nz         1 MM9       0.189400
     26 C26          2.5770     1.4200    -4.1500 cy         1 MM9      -0.058400
     27 C27          2.2400     0.5440    -2.9330 cy         1 MM9       0.048000
     28 C28         -2.3700    -1.5420    -1.2810 c3         1 MM9       0.060800
     29 C10         -5.9140    -2.9810    -1.4380 c3         1 MM9       0.091800
     30 C29         -3.8660    -1.6610    -1.4190 c          1 MM9       0.580100
     31 O30         -4.5350    -0.6730    -1.6310 o          1 MM9      -0.621100
     32 C30         -3.6500    -4.0600    -1.0510 c3         1 MM9       0.091800
     33 N2          -4.4600    -2.8660    -1.3040 n          1 MM9      -0.170800
     34 H22          2.4840     3.0340    -2.6690 h1         1 MM9       0.044700
     35 H1          -0.3590    -0.8830     0.5150 hc         1 MM9       0.038700
     36 H21C         1.8910    -0.8860    -0.5090 hc         1 MM9       0.025450
     37 H22C         1.8910     0.8860    -0.5090 hc         1 MM9       0.025450
     38 H61C        -0.1460     2.1340     0.2110 hc         1 MM9       0.025450
     39 H62C        -1.5930     1.2490     0.7230 hc         1 MM9       0.025450
     40 H8          -0.0690    -0.8290    -1.9820 h1         1 MM9       0.008700
     41 H31C         3.1230     0.0020     1.4420 hc         1 MM9       0.014450
     42 H32C         1.6760    -0.8830     1.9530 hc         1 MM9       0.014450
     43 H41C         1.8900     1.2480     3.1850 hc         1 MM9       0.011700
     44 H42C         1.8910     2.1330     1.6490 hc         1 MM9       0.011700
     45 H51C        -0.3580     2.1370     2.6720 hc         1 MM9       0.014450
     46 H52C        -0.3590     0.3650     2.6720 hc         1 MM9       0.014450
     47 H7          -2.3390     0.2150    -2.3070 hn         1 MM9       0.288800
     48 H281        -2.0680    -1.8900    -0.3010 h1         1 MM9       0.020200
     49 H282        -1.8880    -2.1440    -2.0420 h1         1 MM9       0.020200
     50 H271         2.9860     0.6030    -2.1510 h1         1 MM9       0.033200
     51 H272         1.9530    -0.4650    -3.2060 h1         1 MM9       0.033200
     52 H261         2.0620     1.1200    -5.0540 hc         1 MM9       0.039200
     53 H262         3.6370     1.6160    -4.2600 hc         1 MM9       0.039200
     54 H15          2.5070     4.6060    -4.7900 hn         1 MM9       0.170500
     55 H161        -0.0720     5.7560    -5.0900 h1         1 MM9       0.043700
     56 H162         0.2170     4.7030    -6.4820 h1         1 MM9       0.043700
     57 H18          1.9750     5.1900    -8.0770 ha         1 MM9       0.134000
     58 HA           1.2730     7.7380    -4.7210 ha         1 MM9       0.134000
     59 H19          3.3760     6.9290    -9.1170 ha         1 MM9       0.099000
     60 H21          2.6720     9.4880    -5.7440 ha         1 MM9       0.099000
     61 H24          4.3710     8.2900    -9.7510 hn         1 MM9       0.382400
     62 H251         4.7440    11.1580    -8.0240 hn         1 MM9       0.222133
     63 H252         4.5900    10.4040    -6.5830 hn         1 MM9       0.222133
     64 H101        -6.2080    -4.0140    -1.2980 h1         1 MM9       0.009367
     65 H102        -6.2130    -2.6510    -2.4250 h1         1 MM9       0.009367
     66 H103        -6.3950    -2.3640    -0.6890 h1         1 MM9       0.009367
     67 H301        -2.9370    -4.1900    -1.8560 h1         1 MM9       0.009367
     68 H302        -3.1190    -3.9450    -0.1140 h1         1 MM9       0.009367
     69 H303        -4.2950    -4.9290    -0.9970 h1         1 MM9       0.009367
     70 H253         3.2720    11.0220    -7.3260 hn         1 MM9       0.222133
@<TRIPOS>BOND
     1     1     2 1   
     2     1     6 1   
     3     1     8 1   
     4     1    35 1   
     5     2     3 1   
     6     2    36 1   
     7     2    37 1   
     8     3     4 1   
     9     3    41 1   
    10     3    42 1   
    11     4     5 1   
    12     4    43 1   
    13     4    44 1   
    14     5     6 1   
    15     5    45 1   
    16     5    46 1   
    17     6    38 1   
    18     6    39 1   
    19     7     8 1   
    20     7    28 1   
    21     7    47 1   
    22     8     9 1   
    23     8    40 1   
    24     9    10 2   
    25     9    11 1   
    26    11    12 1   
    27    11    27 1   
    28    12    13 1   
    29    12    26 1   
    30    12    34 1   
    31    13    14 2   
    32    13    15 1   
    33    15    16 1   
    34    15    54 1   
    35    16    17 1   
    36    16    55 1   
    37    16    56 1   
    38    17    18 ar  
    39    17    22 ar  
    40    18    19 ar  
    41    18    57 1   
    42    19    20 ar  
    43    19    59 1   
    44    20    21 ar  
    45    20    23 1   
    46    21    22 ar  
    47    21    60 1   
    48    22    58 1   
    49    23    24 2   
    50    23    25 1   
    51    24    61 1   
    52    25    62 1   
    53    25    63 1   
    54    25    70 1   
    55    26    27 1   
    56    26    52 1   
    57    26    53 1   
    58    27    50 1   
    59    27    51 1   
    60    28    30 1   
    61    28    48 1   
    62    28    49 1   
    63    29    33 1   
    64    29    64 1   
    65    29    65 1   
    66    29    66 1   
    67    30    31 2   
    68    30    33 1   
    69    32    33 1   
    70    32    67 1   
    71    32    68 1   
    72    32    69 1   
@<TRIPOS>SUBSTRUCTURE
     1 MM9         1 TEMP              0 ****  ****    0 ROOT
