@<TRIPOS>MOLECULE
MMB
   59    61     1     0     0
SMALL
bcc


@<TRIPOS>ATOM
      1 C1          0.4670   -0.5900   -0.5870 c3        1 MMB     -0.028100
      2 C2          1.7260   -1.3630   -0.2210 c3        1 MMB     -0.237000
      3 C4          1.9550   -1.3600    1.2700 c2        1 MMB      0.431300
      4 C6          2.9420   -0.7190   -0.9660 c         1 MMB      0.922600
      5 O2          3.7170   -1.5050   -1.5700 o         1 MMB     -0.824800
      6 O3          3.0530    0.5390   -0.9510 o         1 MMB     -0.824800
      7 C7         -0.7830   -1.2700   -0.1490 ca        1 MMB     -0.054300
      8 C8         -1.2030   -2.4480   -0.7840 ca        1 MMB     -0.121000
      9 C9         -2.3490   -3.1160   -0.3640 ca        1 MMB     -0.152000
     10 C10        -3.0900   -2.5930    0.7050 ca        1 MMB      0.058100
     11 C11        -2.7000   -1.4040    1.3340 ca        1 MMB     -0.152000
     12 C12        -1.5490   -0.7520    0.9020 ca        1 MMB     -0.121000
     13 O4         -4.2740   -3.2340    1.0620 os        1 MMB     -0.336900
     14 C13        -4.2850   -3.7560    2.3930 c3        1 MMB      0.115100
     15 C14        -3.7110   -5.1260    2.4650 cc        1 MMB      0.188300
     16 C15        -2.3660   -5.4950    2.5480 cd        1 MMB      0.214700
     17 O5         -2.3130   -6.8890    2.6080 os        1 MMB     -0.383800
     18 C3         -3.6590   -7.3160    2.5590 cd        1 MMB      0.519900
     19 N1         -4.5050   -6.2860    2.4730 nc        1 MMB     -0.646000
     20 C16        -3.0560  -11.0140    2.7240 ca        1 MMB     -0.140500
     21 C17        -2.8190   -9.6420    2.6810 ca        1 MMB     -0.096500
     22 C18        -3.8970   -8.7480    2.6040 ca        1 MMB     -0.117500
     23 C19        -5.2100   -9.2400    2.5690 ca        1 MMB     -0.096500
     24 C20        -5.4350  -10.6150    2.6120 ca        1 MMB     -0.140500
     25 C21        -4.3620  -11.5020    2.6900 ca        1 MMB     -0.122000
     26 C26         2.3990   -3.7160    3.8370 c3        1 MMB      0.150400
     27 C28         2.9350   -4.6960    6.0600 c3        1 MMB     -0.090100
     28 C29         2.6910   -3.4200    5.2970 c3        1 MMB     -0.092400
     29 C32         2.1320   -0.0130    1.8980 c3        1 MMB     -0.181400
     30 N4          1.9710   -2.5070    1.9050 n2        1 MMB     -0.501200
     31 O1          2.1740   -2.4250    3.2240 os        1 MMB     -0.212300
     32 C5         -1.0900   -4.7800    2.5760 c3        1 MMB     -0.147400
     33 H11A        0.4520   -0.4750   -1.7060 hc        1 MMB      0.063200
     34 H12A        0.5340    0.4430   -0.1530 hc        1 MMB      0.063200
     35 H2          1.6320   -2.4160   -0.6080 hc        1 MMB      0.064700
     36 H8         -0.6040   -2.8530   -1.6150 ha        1 MMB      0.139500
     37 H9         -2.6810   -4.0400   -0.8570 ha        1 MMB      0.132500
     38 H11        -3.2990   -0.9970    2.1600 ha        1 MMB      0.132500
     39 H12        -1.2280    0.1770    1.3990 ha        1 MMB      0.139500
     40 H131       -3.7220   -3.0800    3.0920 h1        1 MMB      0.062700
     41 H132       -5.3780   -3.7640    2.6590 h1        1 MMB      0.062700
     42 H16        -2.2080  -11.7120    2.7830 ha        1 MMB      0.131000
     43 H17        -1.7890   -9.2520    2.7040 ha        1 MMB      0.153500
     44 H19        -6.0600   -8.5430    2.5040 ha        1 MMB      0.153500
     45 H20        -6.4650  -10.9990    2.5830 ha        1 MMB      0.131000
     46 H21        -4.5450  -12.5860    2.7230 ha        1 MMB      0.127000
     47 H261        3.2650   -4.2340    3.3490 h1        1 MMB      0.033700
     48 H262        1.4780   -4.3500    3.7300 h1        1 MMB      0.033700
     49 H281        3.1500   -4.4700    7.1320 hc        1 MMB      0.029033
     50 H282        2.0400   -5.3620    6.0130 hc        1 MMB      0.029033
     51 H283        3.8060   -5.2500    5.6340 hc        1 MMB      0.029033
     52 H291        1.8280   -2.8610    5.7420 hc        1 MMB      0.049200
     53 H292        3.5880   -2.7510    5.3650 hc        1 MMB      0.049200
     54 H321        2.6080    0.6870    1.1610 hc        1 MMB      0.058033
     55 H322        2.7700   -0.0710    2.8140 hc        1 MMB      0.058033
     56 H323        1.1310    0.3900    2.1880 hc        1 MMB      0.058033
     57 H51        -1.0530   -4.0410    1.7320 hc        1 MMB      0.078033
     58 H52        -0.9840   -4.2210    3.5410 hc        1 MMB      0.078033
     59 H53        -0.2290   -5.4870    2.4740 hc        1 MMB      0.078033
@<TRIPOS>BOND
     1    1    2 1   
     2    1    7 1   
     3    1   33 1   
     4    1   34 1   
     5    2    3 1   
     6    2    4 1   
     7    2   35 1   
     8    3   29 1   
     9    3   30 2   
    10    4    5 1   
    11    4    6 1   
    12    7    8 ar  
    13    7   12 ar  
    14    8    9 ar  
    15    8   36 1   
    16    9   10 ar  
    17    9   37 1   
    18   10   11 ar  
    19   10   13 1   
    20   11   12 ar  
    21   11   38 1   
    22   12   39 1   
    23   13   14 1   
    24   14   15 1   
    25   14   40 1   
    26   14   41 1   
    27   15   16 2   
    28   15   19 1   
    29   16   17 1   
    30   16   32 1   
    31   17   18 1   
    32   18   19 2   
    33   18   22 1   
    34   20   21 ar  
    35   20   25 ar  
    36   20   42 1   
    37   21   22 ar  
    38   21   43 1   
    39   22   23 ar  
    40   23   24 ar  
    41   23   44 1   
    42   24   25 ar  
    43   24   45 1   
    44   25   46 1   
    45   26   28 1   
    46   26   31 1   
    47   26   47 1   
    48   26   48 1   
    49   27   28 1   
    50   27   49 1   
    51   27   50 1   
    52   27   51 1   
    53   28   52 1   
    54   28   53 1   
    55   29   54 1   
    56   29   55 1   
    57   29   56 1   
    58   30   31 1   
    59   32   57 1   
    60   32   58 1   
    61   32   59 1   
@<TRIPOS>SUBSTRUCTURE
     1 MMB         1 TEMP              0 ****  ****    0 ROOT
