@<TRIPOS>MOLECULE
molecule
   45    48     1     0     0
SMALL
bcc


@<TRIPOS>ATOM
      1 C1           0.0000     0.0000     0.0000 c3         1 MMD       0.136800
      2 C2           1.5310     0.0000     0.0000 c3         1 MMD       0.134900
      3 O3           2.0020     0.0000     1.3510 os         1 MMD      -0.426600
      4 C4           1.5490    -1.1170     2.1190 c3         1 MMD       0.134900
      5 C5           0.0180    -1.1280     2.1400 c3         1 MMD       0.136800
      6 N6          -0.4860    -1.1610     0.7590 nh         1 MMD      -0.674300
      7 C7          -1.8690    -1.2260     0.7370 ca         1 MMD       0.909900
      8 N8          -2.5420    -0.2960     0.0780 nb         1 MMD      -0.801000
      9 N9          -2.4740    -2.2170     1.3700 nb         1 MMD      -0.777000
     10 C10         -3.8060    -2.3210     1.3760 ca         1 MMD       0.735200
     11 N11         -4.6220    -3.2670     1.9680 nh         1 MMD      -0.758200
     12 S12         -4.0860    -4.5580     2.8550 s6         1 MMD       1.323900
     13 C13         -4.0090    -3.9360     4.5570 c3         1 MMD      -0.247300
     14 O14         -5.1190    -5.5250     2.7240 o          1 MMD      -0.598800
     15 O15         -2.7800    -4.8080     2.3560 o          1 MMD      -0.598800
     16 C16         -6.0320    -2.9630     1.6970 c3         1 MMD       0.234800
     17 C17         -6.0100    -1.6820     0.8440 c3         1 MMD      -0.028100
     18 C18         -4.5420    -1.3570     0.6980 ca         1 MMD      -0.412900
     19 C19         -3.8760    -0.3300     0.0380 cp         1 MMD       0.596800
     20 C20         -4.6340     0.7100    -0.6980 cp         1 MMD      -0.478100
     21 C21         -4.1840     2.0330    -0.7360 ca         1 MMD       0.532200
     22 N22         -4.8870     2.9300    -1.4030 nb         1 MMD      -0.802500
     23 C23         -6.0050     2.5900    -2.0290 ca         1 MMD       0.952900
     24 N24         -6.7120     3.5600    -2.7160 nv         1 MMD      -0.981500
     25 N27         -6.4640     1.3470    -2.0160 nb         1 MMD      -0.802500
     26 C28         -5.8140     0.3910    -1.3760 ca         1 MMD       0.532200
     27 H1          -0.3600     0.9100     0.4640 h1         1 MMD       0.061950
     28 H1A         -0.3600    -0.0600    -1.0200 h1         1 MMD       0.061950
     29 H2           1.8910    -0.8860    -0.5080 h1         1 MMD       0.057950
     30 H2A          1.8910     0.8860    -0.5080 h1         1 MMD       0.057950
     31 H4           1.9230    -1.0340     3.1320 h1         1 MMD       0.057950
     32 H4A          1.9100    -2.0340     1.6690 h1         1 MMD       0.057950
     33 H5          -0.3290    -2.0060     2.6720 h1         1 MMD       0.061950
     34 H5A         -0.3420    -0.2340     2.6350 h1         1 MMD       0.061950
     35 H13         -3.6880    -2.9010     4.5490 h1         1 MMD       0.100700
     36 H13A        -3.3020    -4.5290     5.1260 h1         1 MMD       0.100700
     37 H13B        -4.9890    -4.0070     5.0130 h1         1 MMD       0.100700
     38 H16         -6.4750    -3.7710     1.1280 h1         1 MMD       0.064200
     39 H16A        -6.5470    -2.7690     2.6310 h1         1 MMD       0.064200
     40 H17         -6.4390    -1.8840    -0.1300 hc         1 MMD       0.064700
     41 H17A        -6.5110    -0.8810     1.3740 hc         1 MMD       0.064700
     42 H21         -3.2710     2.3170    -0.2270 h4         1 MMD       0.040100
     43 HN24        -7.5580     3.3190    -3.1930 hn         1 MMD       0.453300
     44 HN2A        -6.3780     4.5030    -2.7350 hn         1 MMD       0.453300
     45 H28         -6.1950    -0.6230    -1.3700 h4         1 MMD       0.040100
@<TRIPOS>BOND
     1     1     2 1
     2     1     6 1
     3     2     3 1
     4     3     4 1
     5     4     5 1
     6     5     6 1
     7     6     7 1
     8     7     8 ar
     9     7     9 ar
    10     8    19 ar
    11     9    10 ar
    12    10    11 1
    13    10    18 ar
    14    11    12 1
    15    11    16 1
    16    12    13 1
    17    12    14 2
    18    12    15 2
    19    16    17 1
    20    17    18 1
    21    18    19 ar
    22    19    20 1
    23    20    21 ar
    24    20    26 ar
    25    21    22 ar
    26    22    23 ar
    27    23    24 1
    28    23    25 ar
    29    25    26 ar
    30     1    27 1
    31     1    28 1
    32     2    29 1
    33     2    30 1
    34     4    31 1
    35     4    32 1
    36     5    33 1
    37     5    34 1
    38    13    35 1
    39    13    36 1
    40    13    37 1
    41    16    38 1
    42    16    39 1
    43    17    40 1
    44    17    41 1
    45    21    42 1
    46    24    43 1
    47    24    44 1
    48    26    45 1
@<TRIPOS>SUBSTRUCTURE
     1 MMD         1 TEMP              0 ****  ****    0 ROOT
