@<TRIPOS>MOLECULE
MMG
   37    40     1     0     0
SMALL
bcc


@<TRIPOS>ATOM
      1 C4          0.1690    0.6950    0.0530 ca        1 MMG     -0.125500
      2 C5          1.8530   -0.6360    1.1640 ca        1 MMG     -0.125500
      3 C6          6.7650    0.7770   -0.8980 ca        1 MMG     -0.145000
      4 C7          7.9340   -0.7240   -2.3900 ca        1 MMG     -0.145000
      5 C8          7.9090    0.8760   -0.1100 ca        1 MMG     -0.112000
      6 C10         3.5360   -0.0490   -1.2400 ca        1 MMG     -0.021000
      7 C13         1.3800   -0.0110    0.0000 cp        1 MMG     -0.010000
      8 C15         9.0720    0.1780   -0.4500 ca        1 MMG     -0.111600
      9 C17         4.2030   -0.1310   -2.4590 ca        1 MMG     -0.187100
     10 C20        10.3200    0.2880    0.4150 c         1 MMG      0.906200
     11 C1         -0.0760    0.1430    2.3930 ca        1 MMG     -0.139000
     12 C2         -0.5530    0.7690    1.2420 ca        1 MMG     -0.131000
     13 C3          1.1280   -0.5580    2.3510 ca        1 MMG     -0.131000
     14 C9          9.0730   -0.6210   -1.5970 ca        1 MMG     -0.112000
     15 C11         5.5850   -0.2740   -4.2710 cc        1 MMG     -0.125100
     16 C12         1.4540   -0.2220   -2.4840 ca        1 MMG      0.420200
     17 C14         6.7640   -0.0270   -2.0480 ca        1 MMG     -0.073800
     18 C16         2.1390   -0.0910   -1.2410 cp        1 MMG     -0.206300
     19 C18         5.5900   -0.1350   -2.8800 cd        1 MMG     -0.017400
     20 C19         3.3980   -0.2710   -3.6710 ca        1 MMG      0.419800
     21 N21         4.2750   -0.3580   -4.7580 na        1 MMG     -0.293100
     22 N22         2.0310   -0.3140   -3.6840 nb        1 MMG     -0.689000
     23 O23        10.2580    1.0060    1.4520 o         1 MMG     -0.828800
     24 O24        11.3500   -0.3450    0.0470 o         1 MMG     -0.828800
     25 H4         -0.2060    1.2020   -0.8480 ha        1 MMG      0.137000
     26 H5          2.8030   -1.1940    1.1360 ha        1 MMG      0.137000
     27 H6          5.8610    1.3420   -0.6300 ha        1 MMG      0.107500
     28 H7          7.9420   -1.3600   -3.2870 ha        1 MMG      0.107500
     29 H8          7.9250    1.5050    0.7950 ha        1 MMG      0.153500
     30 H10         4.1030    0.0510   -0.3010 ha        1 MMG      0.157000
     31 H1         -0.6460    0.2040    3.3310 ha        1 MMG      0.124000
     32 H2         -1.5000    1.3280    1.2720 ha        1 MMG      0.126500
     33 H3          1.5110   -1.0500    3.2570 ha        1 MMG      0.126500
     34 H9          9.9970   -1.1650   -1.8530 ha        1 MMG      0.153500
     35 H11         6.4330   -0.3180   -4.9560 h4        1 MMG      0.171000
     36 H12         0.3490   -0.2650   -2.4940 h4        1 MMG      0.013100
     37 HN21        4.0090   -0.4440   -5.7010 hn        1 MMG      0.299700
@<TRIPOS>BOND
     1    1    7 ar  
     2    1   12 ar  
     3    1   25 1   
     4    2    7 ar  
     5    2   13 ar  
     6    2   26 1   
     7    3    5 ar  
     8    3   17 ar  
     9    3   27 1   
    10    4   14 ar  
    11    4   17 ar  
    12    4   28 1   
    13    5    8 ar  
    14    5   29 1   
    15    6    9 ar  
    16    6   18 ar  
    17    6   30 1   
    18    7   18 1   
    19    8   10 1   
    20    8   14 ar  
    21    9   19 1   
    22    9   20 ar  
    23   10   23 1   
    24   10   24 1   
    25   11   12 ar  
    26   11   13 ar  
    27   11   31 1   
    28   12   32 1   
    29   13   33 1   
    30   14   34 1   
    31   15   19 2   
    32   15   21 1   
    33   15   35 1   
    34   16   18 ar  
    35   16   22 ar  
    36   16   36 1   
    37   17   19 1   
    38   20   21 1   
    39   20   22 ar  
    40   21   37 1   
@<TRIPOS>SUBSTRUCTURE
     1 MMG         1 TEMP              0 ****  ****    0 ROOT
