@<TRIPOS>MOLECULE
molecule
   37    40     1     0     0
SMALL
bcc


@<TRIPOS>ATOM
      1 C4           0.0000     0.0000     0.0000 ca         1 MMG      -0.127000
      2 C5           2.0850     0.0000     1.2100 ca         1 MMG      -0.127000
      3 C6           6.8790     0.9170    -1.0210 ca         1 MMG      -0.143000
      4 C7           7.7970    -0.9450    -2.2640 ca         1 MMG      -0.143000
      5 C8           7.9720     0.9120    -0.2020 ca         1 MMG      -0.106500
      6 C10          3.5330    -0.0020    -1.2900 ca         1 MMG      -0.023000
      7 C13          1.3940     0.0000     0.0000 cp         1 MMG      -0.011000
      8 C15          8.9930    -0.0230    -0.4060 ca         1 MMG      -0.091600
      9 C17          4.1800    -0.0030    -2.5250 ca         1 MMG      -0.205100
     10 C20         10.1730    -0.0300     0.4770 c          1 MMG       0.879200
     11 C1           0.0040     0.0140     2.3940 ca         1 MMG      -0.141000
     12 C2          -0.6880     0.0060     1.1960 ca         1 MMG      -0.126000
     13 C3           1.3870     0.0010     2.4010 ca         1 MMG      -0.126000
     14 C9           8.8910    -0.9520    -1.4470 ca         1 MMG      -0.106500
     15 C11          5.5910    -0.0060    -4.3000 cc         1 MMG      -0.112100
     16 C12          1.4530    -0.0030    -2.5000 ca         1 MMG       0.449200
     17 C14          6.7760    -0.0140    -2.0570 ca         1 MMG      -0.071800
     18 C16          2.1390    -0.0020    -1.2830 cp         1 MMG      -0.211300
     19 C18          5.5910    -0.0080    -2.9420 cd         1 MMG      -0.047400
     20 C19          3.4210     0.0020    -3.7090 ca         1 MMG       0.458800
     21 N21          4.3070     0.0000    -4.7600 na         1 MMG      -0.281100
     22 N22          2.0950     0.0070    -3.6480 nb         1 MMG      -0.726000
     23 O23         10.2600     0.7760     1.3810 o          1 MMG      -0.835800
     24 O24         11.1560    -0.9310     0.2810 o          1 MMG      -0.835800
     25 H4          -0.5420    -0.0030    -0.9380 ha         1 MMG       0.135500
     26 H5           3.1680    -0.0050     1.2160 ha         1 MMG       0.135500
     27 H6           6.0870     1.6390    -0.8620 ha         1 MMG       0.109000
     28 H7           7.7180    -1.6660    -3.0690 ha         1 MMG       0.109000
     29 H8           8.0510     1.6340     0.6010 ha         1 MMG       0.151500
     30 H10          4.0790    -0.2650    -0.3920 ha         1 MMG       0.155000
     31 H1          -0.5400     0.0170     3.3310 ha         1 MMG       0.122000
     32 H2          -1.7710     0.0110     1.1970 ha         1 MMG       0.126000
     33 H3           1.9230     0.0040     3.3420 ha         1 MMG       0.126000
     34 H9           9.6820    -1.6750    -1.6070 ha         1 MMG       0.151500
     35 H11          6.4770    -0.0090    -4.9230 h4         1 MMG       0.176000
     36 H12          0.3700    -0.0020    -2.4990 h4         1 MMG       0.017100
     37 HN21         4.0470     0.0030    -5.7260 hn         1 MMG       0.294700
@<TRIPOS>BOND
     1    12     1 ar
     2     1     7 ar
     3     1    25 1
     4    13     2 ar
     5     2     7 ar
     6     2    26 1
     7    17     3 ar
     8     5     3 ar
     9     3    27 1
    10    14     4 ar
    11     4    17 ar
    12     4    28 1
    13     8     5 ar
    14     5    29 1
    15    18     6 ar
    16     6     9 ar
    17     6    30 1
    18     7    18 1
    19    14     8 ar
    20    10     8 1
    21     9    19 1
    22     9    20 ar
    23    23    10 1
    24    10    24 1
    25    11    13 ar
    26    11    12 ar
    27    11    31 1
    28    12    32 1
    29    13    33 1
    30    14    34 1
    31    19    15 2
    32    15    21 1
    33    15    35 1
    34    18    16 ar
    35    16    22 ar
    36    16    36 1
    37    17    19 1
    38    22    20 ar
    39    20    21 1
    40    21    37 1
@<TRIPOS>SUBSTRUCTURE
     1 MMG         1 TEMP              0 ****  ****    0 ROOT
