@<TRIPOS>MOLECULE
MMH
   52    55     1     0     0
SMALL
bcc


@<TRIPOS>ATOM
      1 CBC          0.0000     0.0000     0.0000 c3         1 MMH      -0.137000
      2 CBB          1.5080     0.0000     0.0000 c2         1 MMH       0.203000
      3 OBD          2.1140     0.0000     1.0500 o          1 MMH      -0.397000
      4 NBA          2.1810    -0.0020    -1.1680 ns         1 MMH       0.108000
      5 CAY          3.5760     0.0950    -1.1700 ca         1 MMH      -0.071000
      6 CAZ          4.3160    -0.5050    -0.1610 ca         1 MMH      -0.137000
      7 CAX          4.2230     0.7880    -2.1860 ca         1 MMH      -0.145000
      8 CAW          5.6020     0.8830    -2.1900 ca         1 MMH      -0.066000
      9 CAV          6.3410     0.2910    -1.1830 ca         1 MMH      -0.118000
     10 CAS          5.7010    -0.4070    -0.1670 ca         1 MMH      -0.069000
     11 NAR          6.4490    -1.0100     0.8470 ns         1 MMH       0.117000
     12 CAG          7.5760    -0.4220     1.2940 c2         1 MMH       0.303000
     13 OAQ          7.9880     0.5900     0.7580 o          1 MMH      -0.389000
     14 CAD          8.3080    -1.0030     2.4260 c2         1 MMH      -0.361000
     15 CAE          8.1130    -0.7050     3.7950 c2         1 MMH       0.014000
     16 CAF          7.1090     0.2710     4.3530 c3         1 MMH      -0.038000
     17 NAA          8.9510    -1.4210     4.4910 n2         1 MMH      -0.243000
     18 NAB          9.7180    -2.2060     3.6240 na         1 MMH       0.309000
     19 CAC          9.3230    -1.9560     2.3580 c2         1 MMH      -0.159000
     20 NAH          9.8290    -2.5330     1.2120 nu         1 MMH       0.196000
     21 NAI         10.8550    -3.4830     1.3010 n2         1 MMH      -0.073000
     22 CAJ         11.3310    -4.0260     0.2220 c2         1 MMH      -0.446000
     23 CAL         12.4120    -5.0250     0.3150 c3         1 MMH      -0.165000
     24 CAK         12.9260    -5.6110    -0.8450 c2         1 MMH      -0.013500
     25 CAP         13.9360    -6.5450    -0.7530 c2         1 MMH      -0.194000
     26 CAO         14.4410    -6.9040     0.4900 c2         1 MMH       0.144000
     27 OAT         15.4370    -7.8250     0.5770 os         1 MMH      -0.184000
     28 CAU         15.9110    -8.1470     1.8850 c3         1 MMH       0.054000
     29 CAN         13.9340    -6.3230     1.6460 c2         1 MMH      -0.194000
     30 CAM         12.9280    -5.3850     1.5630 c2         1 MMH      -0.013500
     31 HBC         -0.3610    -0.8500    -0.5660 hc         1 MMH       0.063000
     32 HBCA        -0.3610    -0.0650     1.0190 hc         1 MMH       0.063000
     33 HBCB        -0.3610     0.9150    -0.4530 hc         1 MMH       0.063000
     34 HNBA         1.6850    -0.1080    -2.0310 hn         1 MMH       0.081000
     35 HAZ          3.8140    -1.0480     0.6300 ha         1 MMH       0.148000
     36 HAX          3.6470     1.2540    -2.9760 ha         1 MMH       0.104000
     37 HAW          6.1040     1.4250    -2.9820 ha         1 MMH       0.104000
     38 HAV          7.4220     0.3680    -1.1890 ha         1 MMH       0.146000
     39 HNAR         6.1580    -1.8890     1.2280 hn         1 MMH       0.083000
     40 HAF          6.1310    -0.1940     4.3810 hc         1 MMH       0.057333
     41 HAFA         7.0730     1.1510     3.7220 hc         1 MMH       0.057333
     42 HAFB         7.4020     0.5570     5.3560 hc         1 MMH       0.057333
     43 HNAB        10.4360    -2.8480     3.8970 hn         1 MMH       0.108000
     44 HNAH         9.4780    -2.2580     0.3160 hn         1 MMH       0.099000
     45 HAJ         11.1840    -5.0620     0.5020 DU         1 MMH       0.318000
     46 HAK         12.5320    -5.3320    -1.8150 ha         1 MMH       0.120500
     47 HAP         14.3360    -7.0000    -1.6510 ha         1 MMH       0.126000
     48 HAU         16.3010    -7.2540     2.3580 h1         1 MMH       0.040333
     49 HAUA        16.6970    -8.8890     1.8110 h1         1 MMH       0.040333
     50 HAUB        15.0950    -8.5430     2.4780 h1         1 MMH       0.040333
     51 HAN         14.3330    -6.6050     2.6130 ha         1 MMH       0.126000
     52 HAM         12.5320    -4.9330     2.4650 ha         1 MMH       0.120500
@<TRIPOS>BOND
     1     1     2 1   
     2     1    31 1   
     3     1    32 1   
     4     1    33 1   
     5     2     3 1   
     6     2     4 1   
     7     4     5 1   
     8     4    34 1   
     9     5     6 1   
    10     5     7 1   
    11     6    10 1   
    12     6    35 1   
    13     7     8 1   
    14     7    36 1   
    15     8     9 1   
    16     8    37 1   
    17     9    10 1   
    18     9    38 1   
    19    10    11 1   
    20    11    12 1   
    21    11    39 1   
    22    12    13 1   
    23    12    14 1   
    24    14    15 1   
    25    14    19 1   
    26    15    16 1   
    27    15    17 1   
    28    16    40 1   
    29    16    41 1   
    30    16    42 1   
    31    17    18 1   
    32    18    19 1   
    33    18    43 1   
    34    19    20 1   
    35    20    21 1   
    36    20    44 1   
    37    21    22 1   
    38    22    23 1   
    39    22    45 1   
    40    23    24 1   
    41    23    30 1   
    42    23    45 1   
    43    24    25 1   
    44    24    46 1   
    45    25    26 1   
    46    25    47 1   
    47    26    27 1   
    48    26    29 1   
    49    27    28 1   
    50    28    48 1   
    51    28    49 1   
    52    28    50 1   
    53    29    30 1   
    54    29    51 1   
    55    30    52 1   
@<TRIPOS>SUBSTRUCTURE
     1 MMH         1 TEMP              0 ****  ****    0 ROOT
