@<TRIPOS>MOLECULE
molecule
   52    54     1     0     0
SMALL
bcc


@<TRIPOS>ATOM
      1 CBC          0.0000     0.0000     0.0000 c3         1 MMH      -0.171100
      2 CBB          1.5080     0.0000     0.0000 c          1 MMH       0.657100
      3 OBD          2.1140     0.0000     1.0500 o          1 MMH      -0.593100
      4 NBA          2.1810    -0.0020    -1.1680 ns         1 MMH      -0.481100
      5 CAY          3.5760     0.0950    -1.1700 ca         1 MMH       0.066600
      6 CAZ          4.3160    -0.5050    -0.1610 ca         1 MMH      -0.161000
      7 CAX          4.2230     0.7880    -2.1860 ca         1 MMH      -0.178000
      8 CAW          5.6020     0.8830    -2.1900 ca         1 MMH      -0.099000
      9 CAV          6.3410     0.2910    -1.1830 ca         1 MMH      -0.147000
     10 CAS          5.7010    -0.4070    -0.1670 ca         1 MMH       0.067600
     11 NAR          6.4490    -1.0100     0.8470 ns         1 MMH      -0.473100
     12 CAG          7.5760    -0.4220     1.2940 c          1 MMH       0.710700
     13 OAQ          7.9880     0.5900     0.7580 o          1 MMH      -0.590100
     14 CAD          8.3080    -1.0030     2.4260 cc         1 MMH      -0.449900
     15 CAE          8.1130    -0.7050     3.7950 cc         1 MMH       0.408600
     16 CAF          7.1090     0.2710     4.3530 c3         1 MMH      -0.117400
     17 NAA          8.9510    -1.4210     4.4910 nd         1 MMH      -0.525800
     18 NAB          9.7180    -2.2060     3.6240 na         1 MMH      -0.045600
     19 CAC          9.3230    -1.9560     2.3580 cd         1 MMH       0.254300
     20 NAH          9.8290    -2.5330     1.2120 nu         1 MMH      -0.495700
     21 NAI         10.8550    -3.4830     1.3010 n2         1 MMH      -0.423400
     22 CAJ         11.3310    -4.0260     0.2220 ce         1 MMH       0.412800
     23 CAL         12.4120    -5.0250     0.3150 ca         1 MMH      -0.175900
     24 CAK         12.9260    -5.6110    -0.8450 ca         1 MMH      -0.060000
     25 CAP         13.9360    -6.5450    -0.7530 ca         1 MMH      -0.195500
     26 CAO         14.4410    -6.9040     0.4900 ca         1 MMH       0.159100
     27 OAT         15.4370    -7.8250     0.5770 os         1 MMH      -0.325900
     28 CAU         15.9110    -8.1470     1.8850 c3         1 MMH       0.127700
     29 CAN         13.9340    -6.3230     1.6460 ca         1 MMH      -0.195500
     30 CAM         12.9280    -5.3850     1.5630 ca         1 MMH      -0.060000
     31 HBC         -0.3610    -0.7930    -0.6440 hc         1 MMH       0.063033
     32 HBCA        -0.3610    -0.1620     1.0080 hc         1 MMH       0.063033
     33 HBCB        -0.3610     0.9540    -0.3640 hc         1 MMH       0.063033
     34 HNBA         1.6850    -0.1100    -2.0300 hn         1 MMH       0.323500
     35 HAZ          3.8140    -1.0480     0.6300 ha         1 MMH       0.166000
     36 HAX          3.6470     1.2540    -2.9760 ha         1 MMH       0.128000
     37 HAW          6.1040     1.4250    -2.9820 ha         1 MMH       0.134000
     38 HAV          7.4220     0.3680    -1.1890 ha         1 MMH       0.162000
     39 HNAR         6.1670    -1.8970     1.2160 hn         1 MMH       0.329500
     40 HAF          6.1310    -0.1940     4.3810 hc         1 MMH       0.057367
     41 HAFA         7.0730     1.1510     3.7220 hc         1 MMH       0.057367
     42 HAFB         7.4020     0.5570     5.3560 hc         1 MMH       0.057367
     43 HNAB        10.4360    -2.8480     3.8970 hn         1 MMH       0.342700
     44 HNAH         9.4640    -2.2730     0.3170 hn         1 MMH       0.453800
     45 HAJ         10.9350    -3.7450    -0.7470 h4         1 MMH      -0.006200
     46 HAK         12.5320    -5.3320    -1.8150 ha         1 MMH       0.142000
     47 HAP         14.3360    -7.0000    -1.6510 ha         1 MMH       0.145000
     48 HAU         16.3010    -7.2540     2.3580 h1         1 MMH       0.044367
     49 HAUA        15.0950    -8.5430     2.4780 h1         1 MMH       0.044367
     50 HAUB        16.6970    -8.8890     1.8110 h1         1 MMH       0.044367
     51 HAN         14.3330    -6.6050     2.6130 ha         1 MMH       0.145000
     52 HAM         12.5320    -4.9330     2.4650 ha         1 MMH       0.142000
@<TRIPOS>BOND
     1     1     2 1
     2     2     3 2
     3     2     4 1
     4     4     5 1
     5     5     6 ar
     6     5     7 ar
     7     6    10 ar
     8     7     8 ar
     9     8     9 ar
    10     9    10 ar
    11    10    11 1
    12    11    12 1
    13    12    13 2
    14    12    14 1
    15    14    15 1
    16    14    19 2
    17    15    16 1
    18    15    17 2
    19    17    18 1
    20    18    19 1
    21    19    20 1
    22    20    21 1
    23    21    22 2
    24    22    23 1
    25    23    24 ar
    26    23    30 ar
    27    24    25 ar
    28    25    26 ar
    29    26    27 1
    30    26    29 ar
    31    27    28 1
    32    29    30 ar
    33     1    31 1
    34     1    32 1
    35     1    33 1
    36     4    34 1
    37     6    35 1
    38     7    36 1
    39     8    37 1
    40     9    38 1
    41    11    39 1
    42    16    40 1
    43    16    41 1
    44    16    42 1
    45    18    43 1
    46    20    44 1
    47    22    45 1
    48    24    46 1
    49    25    47 1
    50    28    48 1
    51    28    49 1
    52    28    50 1
    53    29    51 1
    54    30    52 1
@<TRIPOS>SUBSTRUCTURE
     1 MMH         1 TEMP              0 ****  ****    0 ROOT
