@<TRIPOS>MOLECULE
molecule
   29    30     1     0     0
SMALL
bcc


@<TRIPOS>ATOM
      1 C15          0.0000     0.0000     0.0000 c3         1 MMJ      -0.119400
      2 C10          1.5070     0.0000     0.0000 cc         1 MMJ       0.396600
      3 C9           2.2170     0.0000     1.1330 cd         1 MMJ      -0.139700
      4 C12          1.6530     0.0020     2.5300 c3         1 MMJ       0.242100
      5 N13          1.4690    -1.3830     2.9850 n7         1 MMJ      -0.815200
      6 C14          0.9190    -1.4200     4.3460 c3         1 MMJ       0.145100
      7 S8           3.9290    -0.0010     0.7100 ss         1 MMJ      -0.258300
      8 N11          2.2040    -0.0070    -1.1120 nc         1 MMJ      -0.680000
      9 C7           3.5020    -0.0020    -0.9990 cd         1 MMJ       0.543900
     10 C2           4.4620    -0.0080    -2.1240 ca         1 MMJ      -0.127500
     11 C3           5.8340    -0.0080    -1.8740 ca         1 MMJ      -0.098000
     12 C4           6.7250    -0.0120    -2.9270 ca         1 MMJ      -0.133000
     13 C5           6.2590    -0.0170    -4.2300 ca         1 MMJ      -0.116000
     14 C6           4.8990    -0.0170    -4.4850 ca         1 MMJ      -0.133000
     15 C1           3.9980    -0.0190    -3.4410 ca         1 MMJ      -0.098000
     16 H1          -0.3610     0.0680    -1.0190 hc         1 MMJ       0.053033
     17 H2          -0.3610     0.8480     0.5690 hc         1 MMJ       0.053033
     18 H3          -0.3610    -0.9170     0.4500 hc         1 MMJ       0.053033
     19 H4           2.3380     0.5130     3.1960 h1         1 MMJ       0.044700
     20 H5           0.6980     0.5130     2.5330 h1         1 MMJ       0.044700
     21 H6           2.3490    -1.8590     2.9680 hn         1 MMJ       0.356800
     22 H8           0.8280    -2.4490     4.6710 h1         1 MMJ       0.032033
     23 H9           1.5800    -0.8860     5.0180 h1         1 MMJ       0.032033
     24 H10         -0.0580    -0.9510     4.3540 h1         1 MMJ       0.032033
     25 H11          6.1990    -0.0040    -0.8540 ha         1 MMJ       0.144500
     26 H12          7.7910    -0.0120    -2.7340 ha         1 MMJ       0.134000
     27 H13          6.9620    -0.0180    -5.0540 ha         1 MMJ       0.131000
     28 H14          4.5410    -0.0240    -5.5080 ha         1 MMJ       0.134000
     29 H15          2.9340    -0.0200    -3.6410 ha         1 MMJ       0.144500
@<TRIPOS>BOND
     1     1     2 1
     2     2     8 1
     3     2     3 2
     4     8     9 2
     5     3     4 1
     6     3     7 1
     7     4     5 1
     8     9    10 1
     9     9     7 1
    10    11    12 ar
    11    11    10 ar
    12    12    13 ar
    13    10    15 ar
    14     5     6 1
    15    13    14 ar
    16    15    14 ar
    17     1    16 1
    18     1    17 1
    19     1    18 1
    20     4    19 1
    21     4    20 1
    22     5    21 1
    23     6    22 1
    24     6    23 1
    25     6    24 1
    26    11    25 1
    27    12    26 1
    28    13    27 1
    29    14    28 1
    30    15    29 1
@<TRIPOS>SUBSTRUCTURE
     1 MMJ         1 TEMP              0 ****  ****    0 ROOT
