@<TRIPOS>MOLECULE
MMJ
   29    30     1     0     0
SMALL
bcc


@<TRIPOS>ATOM
      1 C15          0.0000     0.0000     0.0000 c3         1 MMJ      -0.023400
      2 C10          1.5070     0.0000     0.0000 cc         1 MMJ       0.349600
      3 C9           2.2170     0.0000     1.1330 cd         1 MMJ      -0.112700
      4 C12          1.6530     0.0020     2.5300 c3         1 MMJ       0.248100
      5 N13          1.4690    -1.3830     2.9850 n7         1 MMJ      -0.585200
      6 C14          0.9190    -1.4200     4.3460 c3         1 MMJ       0.179100
      7 S8           3.9290    -0.0010     0.7100 ss         1 MMJ      -0.341300
      8 N11          2.2040    -0.0070    -1.1120 nc         1 MMJ      -0.557000
      9 C7           3.5020    -0.0020    -0.9990 cd         1 MMJ       0.534900
     10 C2           4.4620    -0.0080    -2.1240 ca         1 MMJ      -0.131500
     11 C3           5.8340    -0.0080    -1.8740 ca         1 MMJ      -0.074000
     12 C4           6.7250    -0.0120    -2.9270 ca         1 MMJ      -0.105500
     13 C5           6.2590    -0.0170    -4.2300 ca         1 MMJ      -0.088000
     14 C6           4.8990    -0.0170    -4.4850 ca         1 MMJ      -0.105500
     15 C1           3.9980    -0.0190    -3.4410 ca         1 MMJ      -0.074000
     16 H1          -0.3610     0.0680    -1.0190 hc         1 MMJ       0.016367
     17 H2          -0.3610     0.8480     0.5690 hc         1 MMJ       0.016367
     18 H3          -0.3610    -0.9170     0.4500 hc         1 MMJ       0.016367
     19 H4           2.3380     0.5130     3.1960 h1         1 MMJ       0.016200
     20 H5           0.6980     0.5130     2.5330 h1         1 MMJ       0.016200
     21 H6           2.3490    -1.8590     2.9680 hn         1 MMJ       0.257800
     22 H8           0.8280    -2.4490     4.6710 h1         1 MMJ      -0.000967
     23 H9           1.5800    -0.8860     5.0180 h1         1 MMJ      -0.000967
     24 H10         -0.0580    -0.9510     4.3540 h1         1 MMJ      -0.000967
     25 H11          6.1990    -0.0040    -0.8540 ha         1 MMJ       0.118500
     26 H12          7.7910    -0.0120    -2.7340 ha         1 MMJ       0.105000
     27 H13          6.9620    -0.0180    -5.0540 ha         1 MMJ       0.102000
     28 H14          4.5410    -0.0240    -5.5080 ha         1 MMJ       0.105000
     29 H15          2.9340    -0.0200    -3.6410 ha         1 MMJ       0.118500
@<TRIPOS>BOND
     1     1     2 1   
     2     1    16 1   
     3     1    17 1   
     4     1    18 1   
     5     2     3 2   
     6     2     8 1   
     7     3     4 1   
     8     3     7 1   
     9     4     5 1   
    10     4    19 1   
    11     4    20 1   
    12     5     6 1   
    13     5    21 1   
    14     6    22 1   
    15     6    23 1   
    16     6    24 1   
    17     7     9 1   
    18     8     9 2   
    19     9    10 1   
    20    10    11 ar  
    21    10    15 ar  
    22    11    12 ar  
    23    11    25 1   
    24    12    13 ar  
    25    12    26 1   
    26    13    14 ar  
    27    13    27 1   
    28    14    15 ar  
    29    14    28 1   
    30    15    29 1   
@<TRIPOS>SUBSTRUCTURE
     1 MMJ         1 TEMP              0 ****  ****    0 ROOT
