@<TRIPOS>MOLECULE
MMK
   43    45     1     0     0
SMALL
bcc


@<TRIPOS>ATOM
      1 OAT          0.0000     0.0000     0.0000 o          1 MMK      -0.614000
      2 CAS          1.3470     0.0000     0.0000 c2         1 MMK       0.422000
      3 OAU          1.9540     0.0000     1.0520 o          1 MMK      -0.614000
      4 CAO          2.0870    -0.0010    -1.2820 c2         1 MMK      -0.057000
      5 CAN          3.4850    -0.0010    -1.3050 c2         1 MMK      -0.102000
      6 CAP          1.4080    -0.0070    -2.5050 c2         1 MMK      -0.113000
      7 CAQ          2.1380    -0.0080    -3.6780 c2         1 MMK      -0.115000
      8 NAR          3.4560    -0.0030    -3.6530 n2         1 MMK      -0.088000
      9 CAM          4.1350    -0.0020    -2.5250 c2         1 MMK      -0.107000
     10 CAL          5.6420    -0.0030    -2.5630 c3         1 MMK      -0.034000
     11 N            6.1280    -1.3830    -2.6950 n7         1 MMK      -0.032000
     12 CA           7.5960    -1.4220    -2.7360 c3         1 MMK      -0.121000
     13 C            8.0570    -2.8510    -2.8720 c2         1 MMK       0.189000
     14 O            7.2420    -3.7470    -2.9280 o          1 MMK      -0.275000
     15 NAC          9.3740    -3.1310    -2.9300 nx         1 MMK       0.234000
     16 CAB         10.3580    -2.0470    -2.8610 c3         1 MMK      -0.188000
     17 CAA         10.7360    -1.7950    -1.4010 c3         1 MMK      -0.135000
     18 CAD          9.8020    -4.4590    -3.0560 c2         1 MMK      -0.572000
     19 CAE         11.0960    -4.7340    -3.1130 c2         1 MMK      -0.600000
     20 NAF         11.5230    -6.0590    -3.2390 nx         1 MMK       0.269000
     21 CAH         10.5400    -7.1420    -3.3070 c3         1 MMK      -0.130000
     22 CAG         12.9560    -6.3640    -3.3020 c3         1 MMK      -0.130000
     23 HAN          4.0490    -0.0000    -0.3810 ha         1 MMK       0.130000
     24 HAP          0.3250    -0.0120    -2.5320 ha         1 MMK       0.134000
     25 HAQ          1.6210    -0.0110    -4.6290 h4         1 MMK       0.097000
     26 HAL1         6.0270     0.4300    -1.6480 h1         1 MMK       0.042000
     27 HAL2         5.9820     0.5820    -3.4090 h1         1 MMK       0.042000
     28 H            5.7590    -1.7880    -3.5330 hn         1 MMK       0.072000
     29 HA1C         7.9950    -1.0000    -1.8210 h1         1 MMK       0.059000
     30 HA2C         7.9490    -0.8470    -3.5830 h1         1 MMK       0.059000
     31 HAB1         9.9320    -1.1460    -3.2850 hx         1 MMK       0.094500
     32 HAB2        11.2420    -2.3260    -3.4210 hx         1 MMK       0.094500
     33 HAD          9.8130    -3.8980    -2.1290 DU         1 MMK       0.296000
     34 HAA1        10.7240    -0.7300    -1.2040 hc         1 MMK       0.050333
     35 HAA2        11.7290    -2.1850    -1.2130 hc         1 MMK       0.050333
     36 HAA3        10.0240    -2.2900    -0.7520 hc         1 MMK       0.050333
     37 HAE         11.1300    -5.4470    -2.2970 DU         1 MMK       0.269000
     38 HAH1         9.9930    -7.1920    -2.3740 hx         1 MMK       0.062167
     39 HAH2         9.8500    -6.9530    -4.1210 hx         1 MMK       0.062167
     40 HAH3        11.0500    -8.0820    -3.4780 hx         1 MMK       0.062167
     41 HAG1        13.5110    -5.4530    -3.4930 hx         1 MMK       0.062167
     42 HAG2        13.1390    -7.0730    -4.1000 hx         1 MMK       0.062167
     43 HAG3        13.2750    -6.7910    -2.3590 hx         1 MMK       0.062167
@<TRIPOS>BOND
     1     1     2 1   
     2     2     3 1   
     3     2     4 1   
     4     4     5 1   
     5     4     6 1   
     6     5     9 1   
     7     5    23 1   
     8     6     7 1   
     9     6    24 1   
    10     7     8 1   
    11     7    25 1   
    12     8     9 1   
    13     9    10 1   
    14    10    11 1   
    15    10    26 1   
    16    10    27 1   
    17    11    12 1   
    18    11    28 1   
    19    12    13 1   
    20    12    29 1   
    21    12    30 1   
    22    13    14 1   
    23    13    15 1   
    24    15    16 1   
    25    15    18 1   
    26    15    33 1   
    27    16    17 1   
    28    16    31 1   
    29    16    32 1   
    30    17    34 1   
    31    17    35 1   
    32    17    36 1   
    33    18    19 1   
    34    18    33 1   
    35    19    20 1   
    36    19    37 1   
    37    20    21 1   
    38    20    22 1   
    39    20    37 1   
    40    21    38 1   
    41    21    39 1   
    42    21    40 1   
    43    22    41 1   
    44    22    42 1   
    45    22    43 1   
@<TRIPOS>SUBSTRUCTURE
     1 MMK         1 TEMP              0 ****  ****    0 ROOT
