@<TRIPOS>MOLECULE
molecule
   43    43     1     0     0
SMALL
bcc


@<TRIPOS>ATOM
      1 OAT          0.0000     0.0000     0.0000 o          1 MMK      -0.830800
      2 CAS          1.3470     0.0000     0.0000 c          1 MMK       0.882200
      3 OAU          1.9540     0.0000     1.0520 o          1 MMK      -0.830800
      4 CAO          2.0870    -0.0010    -1.2820 ca         1 MMK      -0.075600
      5 CAN          3.4850    -0.0010    -1.3050 ca         1 MMK      -0.197300
      6 CAP          1.4080    -0.0070    -2.5050 ca         1 MMK      -0.212300
      7 CAQ          2.1380    -0.0080    -3.6780 ca         1 MMK       0.374200
      8 NAR          3.4560    -0.0030    -3.6530 nb         1 MMK      -0.730000
      9 CAM          4.1350    -0.0020    -2.5250 ca         1 MMK       0.376600
     10 CAL          5.6420    -0.0030    -2.5630 c3         1 MMK       0.122500
     11 N            6.1280    -1.3830    -2.6950 n7         1 MMK      -0.789200
     12 CA           7.5960    -1.4220    -2.7360 c3         1 MMK       0.087800
     13 C            8.0570    -2.8510    -2.8720 c          1 MMK       0.657100
     14 O            7.2420    -3.7470    -2.9280 o          1 MMK      -0.572100
     15 NAC          9.3740    -3.1310    -2.9300 n          1 MMK      -0.391000
     16 CAB         10.3580    -2.0470    -2.8610 c3         1 MMK       0.091000
     17 CAA         10.7360    -1.7950    -1.4010 c3         1 MMK      -0.120100
     18 CAD          9.8020    -4.4590    -3.0560 c2         1 MMK      -0.118400
     19 CAE         11.0960    -4.7340    -3.1130 c2         1 MMK       0.000000
     20 NAF         11.5230    -6.0590    -3.2390 nh         1 MMK      -0.753400
     21 CAH         10.5400    -7.1420    -3.3070 c3         1 MMK       0.237600
     22 CAG         12.9560    -6.3640    -3.3020 c3         1 MMK       0.237600
     23 HAN          4.0490    -0.0000    -0.3810 ha         1 MMK       0.154000
     24 HAP          0.3250    -0.0120    -2.5320 ha         1 MMK       0.157000
     25 HAQ          1.6210    -0.0110    -4.6290 h4         1 MMK      -0.003900
     26 HAL1         5.9820     0.5820    -3.4100 h1         1 MMK       0.031700
     27 HAL2         6.0270     0.4300    -1.6480 h1         1 MMK       0.031700
     28 H            5.7590    -1.7880    -3.5330 hn         1 MMK       0.378800
     29 HA1C         7.9950    -1.0000    -1.8210 h1         1 MMK       0.042700
     30 HA2C         7.9490    -0.8470    -3.5830 h1         1 MMK       0.042700
     31 HAB1         9.9320    -1.1460    -3.2850 h1         1 MMK       0.050700
     32 HAB2        11.2420    -2.3260    -3.4210 h1         1 MMK       0.050700
     33 HAD          9.0750    -5.2600    -3.1090 h4         1 MMK       0.175000
     34 HAA1        10.1610    -2.4510    -0.7600 hc         1 MMK       0.044033
     35 HAA2        10.5240    -0.7630    -1.1460 hc         1 MMK       0.044033
     36 HAA3        11.7930    -1.9910    -1.2630 hc         1 MMK       0.044033
     37 HAE         11.8240    -3.9330    -3.0610 h4         1 MMK       0.136000
     38 HAH1        11.0540    -8.0900    -3.4090 h1         1 MMK       0.028867
     39 HAH2         9.8930    -6.9890    -4.1630 h1         1 MMK       0.028867
     40 HAH3         9.9460    -7.1480    -2.4010 h1         1 MMK       0.028867
     41 HAG1        13.1000    -7.4350    -3.2250 h1         1 MMK       0.028867
     42 HAG2        13.3590    -6.0120    -4.2440 h1         1 MMK       0.028867
     43 HAG3        13.4660    -5.8700    -2.4830 h1         1 MMK       0.028867
@<TRIPOS>BOND
     1     1     2 1
     2     2     3 1
     3     2     4 1
     4     4     5 ar
     5     4     6 ar
     6     5     9 ar
     7     6     7 ar
     8     7     8 ar
     9     8     9 ar
    10     9    10 1
    11    10    11 1
    12    11    12 1
    13    12    13 1
    14    13    14 2
    15    13    15 1
    16    15    16 1
    17    15    18 1
    18    16    17 1
    19    18    19 2
    20    19    20 1
    21    20    21 1
    22    20    22 1
    23     5    23 1
    24     6    24 1
    25     7    25 1
    26    10    26 1
    27    10    27 1
    28    11    28 1
    29    12    29 1
    30    12    30 1
    31    16    31 1
    32    16    32 1
    33    18    33 1
    34    17    34 1
    35    17    35 1
    36    17    36 1
    37    19    37 1
    38    21    38 1
    39    21    39 1
    40    21    40 1
    41    22    41 1
    42    22    42 1
    43    22    43 1
@<TRIPOS>SUBSTRUCTURE
     1 MMK         1 TEMP              0 ****  ****    0 ROOT
