@<TRIPOS>MOLECULE
MML
   24    24     1     0     0
SMALL
bcc


@<TRIPOS>ATOM
      1 C1         -0.0170   -0.0040   -0.0050 c3        1 MML     -0.052800
      2 C2          1.4630    0.0090   -0.0130 ca        1 MML     -0.080300
      3 C3          2.1790    0.0150    1.1900 ca        1 MML     -0.129500
      4 C4          3.5720    0.0120    1.1830 ca        1 MML     -0.123000
      5 C5          4.2770    0.0040   -0.0260 ca        1 MML     -0.078300
      6 C6          5.7740    0.0010   -0.0230 c3        1 MML     -0.023400
      7 C7          6.3180   -1.2490   -0.6880 c3        1 MML     -0.088100
      8 C8          6.3220    1.2440   -0.6990 c3        1 MML     -0.088100
      9 C9          3.5600   -0.0010   -1.2280 ca        1 MML     -0.123000
     10 C10         2.1680    0.0020   -1.2220 ca        1 MML     -0.129500
     11 H1         -0.3890   -1.0590    0.0190 hc        1 MML      0.043033
     12 H1A        -0.4180    0.5280    0.8930 hc        1 MML      0.043033
     13 H1B        -0.4270    0.4900   -0.9200 hc        1 MML      0.043033
     14 H3          1.6370    0.0230    2.1470 ha        1 MML      0.130000
     15 H4          4.1200    0.0170    2.1370 ha        1 MML      0.130500
     16 H6          6.1300    0.0050    1.0490 hc        1 MML      0.049700
     17 H7          5.9380   -2.1620   -0.1700 hc        1 MML      0.035700
     18 H7A         7.4340   -1.2500   -0.6440 hc        1 MML      0.035700
     19 H7B         6.0050   -1.2940   -1.7590 hc        1 MML      0.035700
     20 H8          5.9460    2.1630   -0.1890 hc        1 MML      0.035700
     21 H8A         7.4380    1.2410   -0.6550 hc        1 MML      0.035700
     22 H8B         6.0090    1.2800   -1.7700 hc        1 MML      0.035700
     23 H9          4.1020   -0.0060   -2.1860 ha        1 MML      0.130500
     24 H10         1.6170   -0.0000   -2.1740 ha        1 MML      0.130000
@<TRIPOS>BOND
     1    1    2 1   
     2    1   11 1   
     3    1   12 1   
     4    1   13 1   
     5    2    3 ar  
     6    2   10 ar  
     7    3    4 ar  
     8    3   14 1   
     9    4    5 ar  
    10    4   15 1   
    11    5    6 1   
    12    5    9 ar  
    13    6    7 1   
    14    6    8 1   
    15    6   16 1   
    16    7   17 1   
    17    7   18 1   
    18    7   19 1   
    19    8   20 1   
    20    8   21 1   
    21    8   22 1   
    22    9   10 ar  
    23    9   23 1   
    24   10   24 1   
@<TRIPOS>SUBSTRUCTURE
     1 MML         1 TEMP              0 ****  ****    0 ROOT
