@<TRIPOS>MOLECULE
molecule
   24    24     1     0     0
SMALL
bcc


@<TRIPOS>ATOM
      1 C1           0.0000     0.0000     0.0000 c3         1 MML      -0.046800
      2 C2           1.5070     0.0000     0.0000 ca         1 MML      -0.087300
      3 C3           2.1980     0.0000     1.1980 ca         1 MML      -0.126500
      4 C4           3.5800     0.0010     1.1980 ca         1 MML      -0.121000
      5 C5           4.2710     0.0010     0.0010 ca         1 MML      -0.082300
      6 C6           5.7780     0.0020     0.0010 c3         1 MML      -0.030400
      7 C7           6.2890    -1.2470    -0.7200 c3         1 MML      -0.085100
      8 C8           6.2880     1.2510    -0.7200 c3         1 MML      -0.085100
      9 C9           3.5800    -0.0000    -1.1970 ca         1 MML      -0.121000
     10 C10          2.1980    -0.0050    -1.1970 ca         1 MML      -0.126500
     11 H1          -0.3610    -1.0000    -0.2090 hc         1 MML       0.042033
     12 H1A         -0.3610     0.6810    -0.7610 hc         1 MML       0.042033
     13 H1B         -0.3610     0.3190     0.9700 hc         1 MML       0.042033
     14 H3           1.6560     0.0000     2.1360 ha         1 MML       0.129000
     15 H4           4.1220     0.0010     2.1360 ha         1 MML       0.129500
     16 H6           6.1390     0.0020     1.0220 hc         1 MML       0.053700
     17 H7           7.3540    -1.3520    -0.5500 hc         1 MML       0.035700
     18 H7A          5.7750    -2.1210    -0.3380 hc         1 MML       0.035700
     19 H7B          6.1010    -1.1540    -1.7830 hc         1 MML       0.035700
     20 H8           7.3530     1.3570    -0.5500 hc         1 MML       0.035700
     21 H8A          6.1010     1.1560    -1.7830 hc         1 MML       0.035700
     22 H8B          5.7730     2.1240    -0.3390 hc         1 MML       0.035700
     23 H9           4.1220    -0.0020    -2.1350 ha         1 MML       0.129500
     24 H10          1.6570    -0.0060    -2.1350 ha         1 MML       0.129000
@<TRIPOS>BOND
     1     1     2 1
     2     2     3 ar
     3     2    10 ar
     4     3     4 ar
     5     4     5 ar
     6     5     6 1
     7     5     9 ar
     8     6     7 1
     9     6     8 1
    10     9    10 ar
    11     1    11 1
    12     1    12 1
    13     1    13 1
    14     3    14 1
    15     4    15 1
    16     6    16 1
    17     7    17 1
    18     7    18 1
    19     7    19 1
    20     8    20 1
    21     8    21 1
    22     8    22 1
    23     9    23 1
    24    10    24 1
@<TRIPOS>SUBSTRUCTURE
     1 MML         1 TEMP              0 ****  ****    0 ROOT
