@<TRIPOS>MOLECULE
MMM
   37    38     1     0     0
SMALL
bcc


@<TRIPOS>ATOM
      1 N1           0.0000     0.0000     0.0000 n2         1 MMM      -0.064000
      2 C2           1.3180     0.0000     0.0000 c2         1 MMM      -0.198000
      3 C2A          2.0620    -0.0010    -1.3090 c3         1 MMM      -0.042000
      4 C3           2.0270     0.0000     1.1920 c2         1 MMM       0.030000
      5 O3           3.3850    -0.0000     1.1880 oh         1 MMM      -0.207000
      6 C4           1.3180     0.0010     2.4040 c3         1 MMM      -0.197000
      7 C4A          2.0250     0.0020     3.7000 c2         1 MMM      -0.396000
      8 C5          -0.0810     0.0010     2.3480 c2         1 MMM       0.002000
      9 C6          -0.7030     0.0010     1.1160 c2         1 MMM      -0.105000
     10 C5A         -0.8980     0.0010     3.6150 c3         1 MMM       0.162000
     11 OP4         -2.2880     0.0020     3.2860 os         1 MMM      -0.650000
     12 P           -3.4520     0.0020     4.3990 p5         1 MMM       0.909500
     13 OP1         -3.2570    -1.1410     5.3170 o          1 MMM      -0.758500
     14 OP2         -3.3970     1.3780     5.2320 o          1 MMM      -0.758500
     15 OP3         -4.8850    -0.1300     3.6760 o          1 MMM      -0.758500
     16 NA           3.3180     0.0010     3.7300 n2         1 MMM       0.086000
     17 CAA          4.0210     0.0020     5.0150 c3         1 MMM      -0.073000
     18 CBA          3.6320    -1.2460     5.8100 c3         1 MMM       0.061000
     19 OGA          3.9950    -2.4140     5.0690 oh         1 MMM      -0.289000
     20 CAB          3.6320     1.2520     5.8080 c3         1 MMM      -0.101000
     21 CA           5.5090     0.0030     4.7740 c2         1 MMM       0.413000
     22 OXT          6.0190    -0.6650     3.7280 o          1 MMM      -0.640500
     23 OA           6.2420     0.6030     5.5240 o          1 MMM      -0.640500
     24 H2A1         2.7750    -0.8160    -1.3190 hc         1 MMM       0.030333
     25 H2A2         1.3590    -0.1270    -2.1240 hc         1 MMM       0.030333
     26 H2A3         2.5860     0.9400    -1.4270 hc         1 MMM       0.030333
     27 H6          -1.7850     0.0030     1.0640 h4         1 MMM       0.172000
     28 H5A1        -0.6630     0.8850     4.1950 h1         1 MMM       0.051500
     29 H5A2        -0.6640    -0.8840     4.1940 h1         1 MMM       0.051500
     30 H4A          1.8930    -0.8740     3.0750 DU         1 MMM       0.319000
     31 HAB1         2.5730     1.2200     6.0350 hc         1 MMM       0.045667
     32 HAB2         4.1990     1.2850     6.7300 hc         1 MMM       0.045667
     33 HAB3         3.8490     2.1350     5.2190 hc         1 MMM       0.045667
     34 HBA1         2.5630    -1.2460     5.9830 h1         1 MMM       0.030000
     35 HBA2         4.1520    -1.2460     6.7600 h1         1 MMM       0.030000
     36 HGA          4.0100    -3.1600     5.6450 ho         1 MMM       0.149000
     37 HO3          3.6980     0.8000     0.8000 ho         1 MMM       0.188000
@<TRIPOS>BOND
     1     1     2 1   
     2     1     9 1   
     3     2     3 1   
     4     2     4 1   
     5     3    24 1   
     6     3    25 1   
     7     3    26 1   
     8     4     5 1   
     9     4     6 1   
    10     5    37 1   
    11     6     7 1   
    12     6     8 1   
    13     6    30 1   
    14     7    16 1   
    15     7    30 1   
    16     8     9 1   
    17     8    10 1   
    18     9    27 1   
    19    10    11 1   
    20    10    28 1   
    21    10    29 1   
    22    11    12 1   
    23    12    13 1   
    24    12    14 1   
    25    12    15 1   
    26    16    17 1   
    27    17    18 1   
    28    17    20 1   
    29    17    21 1   
    30    18    19 1   
    31    18    34 1   
    32    18    35 1   
    33    19    36 1   
    34    20    31 1   
    35    20    32 1   
    36    20    33 1   
    37    21    22 1   
    38    21    23 1   
@<TRIPOS>SUBSTRUCTURE
     1 MMM         1 TEMP              0 ****  ****    0 ROOT
