@<TRIPOS>MOLECULE
molecule
   37    37     1     0     0
SMALL
bcc


@<TRIPOS>ATOM
      1 N1           0.0000     0.0000     0.0000 nb         1 MMM      -0.718000
      2 C2           1.3180     0.0000     0.0000 ca         1 MMM       0.311600
      3 C2A          2.0620    -0.0010    -1.3090 c3         1 MMM      -0.124400
      4 C3           2.0270     0.0000     1.1920 ca         1 MMM       0.012800
      5 O3           3.3850    -0.0000     1.1880 oh         1 MMM      -0.460100
      6 C4           1.3180     0.0010     2.4040 ca         1 MMM      -0.126900
      7 C4A          2.0250     0.0020     3.7000 ce         1 MMM       0.413800
      8 C5          -0.0810     0.0010     2.3480 ca         1 MMM      -0.145600
      9 C6          -0.7030     0.0010     1.1160 ca         1 MMM       0.414200
     10 C5A         -0.8980     0.0010     3.6150 c3         1 MMM       0.251700
     11 OP4         -2.2880     0.0020     3.2860 os         1 MMM      -0.586200
     12 P           -3.4520     0.0020     4.3990 p5         1 MMM       1.187900
     13 OP1         -3.2570    -1.1410     5.3170 o          1 MMM      -0.913833
     14 OP2         -3.3970     1.3780     5.2320 o          1 MMM      -0.913833
     15 OP3         -4.8850    -0.1300     3.6760 o          1 MMM      -0.913833
     16 NA           3.3180     0.0010     3.7300 n2         1 MMM      -0.497900
     17 CAA          4.0210     0.0020     5.0150 c3         1 MMM       0.025200
     18 CBA          3.6320    -1.2460     5.8100 c3         1 MMM       0.144400
     19 OGA          3.9950    -2.4140     5.0690 oh         1 MMM      -0.563800
     20 CAB          3.6320     1.2520     5.8080 c3         1 MMM      -0.088100
     21 CA           5.5090     0.0030     4.7740 c          1 MMM       0.918600
     22 OXT          6.0190    -0.6650     3.7280 o          1 MMM      -0.849300
     23 OA           6.2420     0.6030     5.5240 o          1 MMM      -0.849300
     24 H2A1         1.3590    -0.1280    -2.1240 hc         1 MMM       0.027700
     25 H2A2         2.7760    -0.8150    -1.3190 hc         1 MMM       0.027700
     26 H2A3         2.5850     0.9400    -1.4280 hc         1 MMM       0.027700
     27 H6          -1.7850     0.0020     1.0640 h4         1 MMM       0.069100
     28 H5A1        -0.6630     0.8850     4.1950 h1         1 MMM       0.036200
     29 H5A2        -0.6640    -0.8840     4.1940 h1         1 MMM       0.036200
     30 H4A          1.4610     0.0020     4.6250 h4         1 MMM      -0.018200
     31 HAB1         2.5940     1.1810     6.1080 hc         1 MMM       0.030700
     32 HAB2         3.7690     2.1300     5.1880 hc         1 MMM       0.030700
     33 HAB3         4.2590     1.3300     6.6880 hc         1 MMM       0.030700
     34 HBA1         2.5620    -1.2460     5.9830 h1         1 MMM       0.008700
     35 HBA2         4.1520    -1.2460     6.7600 h1         1 MMM       0.008700
     36 HGA          4.0100    -3.1590     5.6460 ho         1 MMM       0.360000
     37 HO3          3.6980     0.8000     0.7990 ho         1 MMM       0.393000
@<TRIPOS>BOND
     1     1     2 ar
     2     1     9 ar
     3     2     3 1
     4     2     4 ar
     5     3    24 1
     6     3    25 1
     7     3    26 1
     8     4     6 ar
     9     4     5 1
    10     5    37 1
    11     6     8 ar
    12     6     7 1
    13     7    16 2
    14     7    30 1
    15     8     9 ar
    16     8    10 1
    17     9    27 1
    18    10    11 1
    19    10    28 1
    20    10    29 1
    21    11    12 1
    22    12    13 1
    23    12    14 1
    24    12    15 1
    25    16    17 1
    26    17    20 1
    27    17    18 1
    28    17    21 1
    29    18    19 1
    30    18    34 1
    31    18    35 1
    32    19    36 1
    33    20    31 1
    34    20    32 1
    35    20    33 1
    36    21    22 1
    37    21    23 1
@<TRIPOS>SUBSTRUCTURE
     1 MMM         1 TEMP              0 ****  ****    0 ROOT
