@<TRIPOS>MOLECULE
MMP
   81    85     1     0     0
SMALL
bcc


@<TRIPOS>ATOM
      1 C1         -0.5060    0.4350    0.2410 c3        1 MMP      0.200100
      2 N1          0.9250    0.4840    0.2270 na        1 MMP     -0.376200
      3 C11         1.7350    0.2390    1.3390 cc        1 MMP      0.066000
      4 C12         3.0290    0.7640    1.0770 cc        1 MMP     -0.148200
      5 C13         3.0020    1.3240   -0.2370 cd        1 MMP     -0.134200
      6 C14         1.6940    1.1280   -0.7540 cd        1 MMP      0.024000
      7 C15         1.2720    1.4090   -2.1010 ce        1 MMP     -0.129600
      8 C16         4.1840    0.6890    1.9720 c3        1 MMP     -0.014900
      9 C17         4.1300    1.9600   -0.9350 c3        1 MMP      0.000800
     10 C18         5.1570    0.9550   -1.4050 c3        1 MMP     -0.089100
     11 N2          0.0270   -0.6930   -2.4800 nd        1 MMP     -0.620300
     12 C21         0.5310    0.5800   -2.8750 cc        1 MMP      0.408900
     13 C22         0.1460    0.8160   -4.3040 cc        1 MMP     -0.203800
     14 C23        -0.5380   -0.2970   -4.7170 cd        1 MMP     -0.126200
     15 C24        -0.5950   -1.2280   -3.5330 cd        1 MMP      0.207600
     16 C25        -1.2520   -2.4960   -3.5700 ce        1 MMP     -0.259200
     17 C26         0.4910    2.0340   -5.0350 c3        1 MMP     -0.032900
     18 C27        -1.1420   -0.5890   -6.0250 c3        1 MMP     -0.019200
     19 C28        -0.3120   -1.5570   -6.8380 c3        1 MMP     -0.089100
     20 N3         -0.9490   -3.1720   -1.2010 na        1 MMP     -0.259100
     21 C31        -1.3940   -3.3520   -2.5110 cc        1 MMP      0.110900
     22 C32        -2.1160   -4.6580   -2.5510 cd        1 MMP     -0.121300
     23 C33        -2.0680   -5.2180   -1.2990 cd        1 MMP     -0.039300
     24 C34        -1.3260   -4.2740   -0.4000 cc        1 MMP      0.048900
     25 C35        -1.1120   -4.4130    0.9370 ce        1 MMP     -0.161200
     26 C36        -2.7560   -5.1790   -3.7590 c3        1 MMP     -0.066800
     27 C37        -2.6630   -6.4970   -0.8770 c3        1 MMP     -0.034100
     28 C38        -2.0830   -7.6970   -1.6050 c3        1 MMP     -0.192400
     29 C39        -3.1350   -8.5080   -2.3820 c         1 MMP      0.905600
     30 O31        -2.8700   -9.7180   -2.6320 o         1 MMP     -0.851300
     31 O32        -4.2000   -7.9350   -2.7650 o         1 MMP     -0.851300
     32 N4          0.1450   -2.3380    1.3670 nd        1 MMP     -0.635300
     33 C41        -0.4580   -3.4510    1.7890 cd        1 MMP      0.194600
     34 C42        -0.3970   -3.5660    3.2930 cd        1 MMP     -0.090200
     35 C43         0.2710   -2.4510    3.7330 cc        1 MMP     -0.198800
     36 C44         0.6410   -1.6530    2.5210 cc        1 MMP      0.438900
     37 C45         1.3440   -0.4980    2.5160 cf        1 MMP     -0.167600
     38 C46         0.5900   -2.0530    5.1030 c3        1 MMP     -0.068900
     39 C47        -0.9810   -4.6360    4.1170 c3        1 MMP     -0.027200
     40 C48         0.0380   -5.3520    4.9870 c3        1 MMP     -0.191400
     41 C49        -0.3010   -5.3000    6.4870 c         1 MMP      0.904600
     42 O41         0.0920   -6.2610    7.2100 o         1 MMP     -0.854300
     43 O42        -0.9230   -4.2950    6.9470 o         1 MMP     -0.854300
     44 H11        -0.8730    0.6010    1.2900 h1        1 MMP      0.060700
     45 H12        -0.8830   -0.5610   -0.1130 h1        1 MMP      0.060700
     46 H13        -0.9130    1.2340   -0.4350 h1        1 MMP      0.060700
     47 H15         1.6560    2.3480   -2.5350 ha        1 MMP      0.123000
     48 H161        3.8600    0.6670    3.0420 hc        1 MMP      0.031033
     49 H162        4.7760   -0.2410    1.7700 hc        1 MMP      0.031033
     50 H163        4.8580    1.5690    1.8180 hc        1 MMP      0.031033
     51 H171        3.7520    2.5440   -1.8180 hc        1 MMP      0.028700
     52 H172        4.6250    2.6920   -0.2380 hc        1 MMP      0.028700
     53 H181        6.0090    1.4780   -1.9030 hc        1 MMP      0.032033
     54 H182        4.7020    0.2390   -2.1310 hc        1 MMP      0.032033
     55 H183        5.5500    0.3720   -0.5370 hc        1 MMP      0.032033
     56 H25        -1.6850   -2.8000   -4.5350 ha        1 MMP      0.142000
     57 H261        1.6030    2.1200   -5.1410 hc        1 MMP      0.036700
     58 H262        0.0390    2.0370   -6.0580 hc        1 MMP      0.036700
     59 H263        0.1250    2.9370   -4.4840 hc        1 MMP      0.036700
     60 H271       -1.2730    0.3650   -6.6050 hc        1 MMP      0.041700
     61 H272       -2.1670   -1.0240   -5.8660 hc        1 MMP      0.041700
     62 H281        0.6960   -1.1290   -7.0540 hc        1 MMP      0.035367
     63 H282       -0.1750   -2.5160   -6.2810 hc        1 MMP      0.035367
     64 H283       -0.8210   -1.7760   -7.8070 hc        1 MMP      0.035367
     65 HN3        -0.3020   -2.4760   -0.9150 hn        1 MMP      0.344700
     66 H35        -1.4710   -5.3290    1.4350 ha        1 MMP      0.165000
     67 H361       -3.3090   -6.1360   -3.5300 hc        1 MMP      0.064033
     68 H362       -3.4800   -4.4310   -4.1700 hc        1 MMP      0.064033
     69 H363       -1.9880   -5.3890   -4.5460 hc        1 MMP      0.064033
     70 H371       -3.7720   -6.4580   -1.0980 hc        1 MMP      0.066200
     71 H372       -2.5450   -6.6320    0.2310 hc        1 MMP      0.066200
     72 H381       -1.3110   -7.3720   -2.3490 hc        1 MMP      0.034700
     73 H382       -1.5820   -8.3790   -0.8730 hc        1 MMP      0.034700
     74 H45         1.7180   -0.0960    3.4730 ha        1 MMP      0.137000
     75 H461        0.2680   -0.9980    5.2910 hc        1 MMP      0.060700
     76 H462        0.0700   -2.7330    5.8400 hc        1 MMP      0.060700
     77 H463        1.6930   -2.1180    5.2800 hc        1 MMP      0.060700
     78 H471       -1.5130   -5.3800    3.4680 hc        1 MMP      0.058700
     79 H472       -1.7530   -4.1680    4.7980 hc        1 MMP      0.058700
     80 H481        0.1180   -6.4230    4.6760 hc        1 MMP      0.032700
     81 H482        1.0510   -4.8880    4.8690 hc        1 MMP      0.032700
@<TRIPOS>BOND
     1    1    2 1   
     2    1   44 1   
     3    1   45 1   
     4    1   46 1   
     5    2    3 1   
     6    2    6 1   
     7    3    4 1   
     8    3   37 2   
     9    4    5 2   
    10    4    8 1   
    11    5    6 1   
    12    5    9 1   
    13    6    7 2   
    14    7   12 1   
    15    7   47 1   
    16    8   48 1   
    17    8   49 1   
    18    8   50 1   
    19    9   10 1   
    20    9   51 1   
    21    9   52 1   
    22   10   53 1   
    23   10   54 1   
    24   10   55 1   
    25   11   12 2   
    26   11   15 1   
    27   12   13 1   
    28   13   14 2   
    29   13   17 1   
    30   14   15 1   
    31   14   18 1   
    32   15   16 2   
    33   16   21 1   
    34   16   56 1   
    35   17   57 1   
    36   17   58 1   
    37   17   59 1   
    38   18   19 1   
    39   18   60 1   
    40   18   61 1   
    41   19   62 1   
    42   19   63 1   
    43   19   64 1   
    44   20   21 1   
    45   20   24 1   
    46   20   65 1   
    47   21   22 2   
    48   22   23 1   
    49   22   26 1   
    50   23   24 2   
    51   23   27 1   
    52   24   25 1   
    53   25   33 2   
    54   25   66 1   
    55   26   67 1   
    56   26   68 1   
    57   26   69 1   
    58   27   28 1   
    59   27   70 1   
    60   27   71 1   
    61   28   29 1   
    62   28   72 1   
    63   28   73 1   
    64   29   30 1   
    65   29   31 1   
    66   32   33 1   
    67   32   36 2   
    68   33   34 1   
    69   34   35 2   
    70   34   39 1   
    71   35   36 1   
    72   35   38 1   
    73   36   37 1   
    74   37   74 1   
    75   38   75 1   
    76   38   76 1   
    77   38   77 1   
    78   39   40 1   
    79   39   78 1   
    80   39   79 1   
    81   40   41 1   
    82   40   80 1   
    83   40   81 1   
    84   41   42 1   
    85   41   43 1   
@<TRIPOS>SUBSTRUCTURE
     1 MMP         1 TEMP              0 ****  ****    0 ROOT
