@<TRIPOS>MOLECULE
molecule
   81    85     1     0     0
SMALL
bcc


@<TRIPOS>ATOM
      1 C1           0.0000     0.0000     0.0000 c3         1 MMP       0.201100
      2 N1           1.4700     0.0000     0.0000 na         1 MMP      -0.206200
      3 C11          2.1220     0.0000     1.2150 cc         1 MMP      -0.017000
      4 C12          3.2230     0.8250     1.0800 cc         1 MMP      -0.152200
      5 C13          3.2230     1.3390    -0.2340 cd         1 MMP      -0.130200
      6 C14          2.1220     0.8240    -0.8930 cd         1 MMP      -0.065000
      7 C15          1.6390     1.0790    -2.2030 ce         1 MMP      -0.127600
      8 C16          4.2200     1.1340     2.1300 c3         1 MMP      -0.017900
      9 C17          4.2200     2.2780    -0.7940 c3         1 MMP      -0.007200
     10 C18          5.4070     1.5620    -1.4450 c3         1 MMP      -0.087100
     11 N2           0.2100    -0.8630    -2.5060 nd         1 MMP      -0.188000
     12 C21          0.7830     0.3210    -2.9060 cc         1 MMP       0.046600
     13 C22          0.3230     0.6080    -4.2590 cc         1 MMP      -0.127200
     14 C23         -0.5000    -0.3610    -4.6830 cd         1 MMP      -0.127200
     15 C24         -0.5210    -1.2580    -3.5080 cd         1 MMP       0.057000
     16 C25         -1.3290    -2.4990    -3.5800 ce         1 MMP      -0.290200
     17 C26          0.7430     1.8260    -5.0140 c3         1 MMP      -0.034900
     18 C27         -1.2360    -0.5510    -5.9520 c3         1 MMP      -0.010200
     19 C28         -0.3980    -1.3260    -6.9540 c3         1 MMP      -0.087100
     20 N3          -1.1190    -3.1030    -1.2140 na         1 MMP      -0.258100
     21 C31         -1.5470    -3.2700    -2.5060 cc         1 MMP       0.126900
     22 C32         -2.3350    -4.5120    -2.4920 cd         1 MMP      -0.181300
     23 C33         -2.3340    -5.0060    -1.2310 cd         1 MMP      -0.024300
     24 C34         -1.5470    -4.1030    -0.3790 cc         1 MMP       0.038900
     25 C35         -1.3300    -4.2660     0.9340 ce         1 MMP      -0.114200
     26 C36         -2.9910    -5.0650    -3.7110 c3         1 MMP      -0.016800
     27 C37         -2.9920    -6.2380    -0.7110 c3         1 MMP      -0.029100
     28 C38         -2.0500    -7.4290    -0.8200 c3         1 MMP      -0.169400
     29 C39         -2.7190    -8.6980    -0.3530 c          1 MMP       0.898600
     30 O31         -1.9010    -9.7770    -0.4270 o          1 MMP      -0.849800
     31 O32         -3.8690    -8.7520     0.0660 o          1 MMP      -0.849800
     32 N4           0.2100    -2.3350     1.2550 nd         1 MMP      -0.209000
     33 C41         -0.5200    -3.3050     1.7230 cd         1 MMP       0.041000
     34 C42         -0.5010    -3.4420     3.1940 cd         1 MMP      -0.064200
     35 C43          0.3220    -2.4430     3.5420 cc         1 MMP      -0.178200
     36 C44          0.7840    -1.7370     2.3530 cc         1 MMP       0.094600
     37 C45          1.6380    -0.7020     2.3510 cf         1 MMP      -0.189600
     38 C46          0.7410    -2.0620     4.9220 c3         1 MMP      -0.026900
     39 C47         -1.2390    -4.4420     3.9990 c3         1 MMP      -0.019200
     40 C48         -0.4050    -5.7030     4.1930 c3         1 MMP      -0.169400
     41 C49         -1.1690    -6.7500     4.9660 c          1 MMP       0.897600
     42 O41         -0.4460    -7.8790     5.1720 o          1 MMP      -0.851300
     43 O42         -2.3110    -6.5960     5.3810 o          1 MMP      -0.851300
     44 H11         -0.3610     0.9090    -0.4650 h1         1 MMP       0.058700
     45 H12         -0.3610    -0.8570    -0.5550 h1         1 MMP       0.058700
     46 H13         -0.3610    -0.0520     1.0200 h1         1 MMP       0.058700
     47 H15          1.3510     2.1200    -2.2850 ha         1 MMP       0.130000
     48 H161         3.7260     1.1870     3.0930 hc         1 MMP       0.033367
     49 H162         4.6900     2.0850     1.9130 hc         1 MMP       0.033367
     50 H163         4.9730     0.3550     2.1530 hc         1 MMP       0.033367
     51 H171         3.7360     2.8990    -1.5380 hc         1 MMP       0.033200
     52 H172         4.5900     2.9120     0.0030 hc         1 MMP       0.033200
     53 H181         6.3180     1.8240    -0.9220 hc         1 MMP       0.031700
     54 H182         5.4860     1.8660    -2.4820 hc         1 MMP       0.031700
     55 H183         5.2550     0.4910    -1.3930 hc         1 MMP       0.031700
     56 H25         -0.9760    -3.1130    -4.4000 ha         1 MMP       0.148000
     57 H261         0.2140     1.8660    -5.9590 hc         1 MMP       0.036367
     58 H262         0.5110     2.7100    -4.4320 hc         1 MMP       0.036367
     59 H263         1.8100     1.7860    -5.1990 hc         1 MMP       0.036367
     60 H271        -1.4830     0.4180    -6.3690 hc         1 MMP       0.049200
     61 H272        -2.1510    -1.0970    -5.7550 hc         1 MMP       0.049200
     62 H281         0.4480    -1.7740    -6.4480 hc         1 MMP       0.033033
     63 H282        -1.0030    -2.1050    -7.4040 hc         1 MMP       0.033033
     64 H283        -0.0440    -0.6540    -7.7260 hc         1 MMP       0.033033
     65 HN3         -0.5530    -2.3350    -0.9130 hn         1 MMP       0.339700
     66 H35         -2.2730    -4.4420     1.4370 ha         1 MMP       0.172000
     67 H361        -3.4410    -4.2580    -4.2760 hc         1 MMP       0.041700
     68 H362        -3.7580    -5.7730    -3.4190 hc         1 MMP       0.041700
     69 H363        -2.2520    -5.5660    -4.3240 hc         1 MMP       0.041700
     70 H371        -3.8870    -6.4370    -1.2880 hc         1 MMP       0.064200
     71 H372        -3.2610    -6.0890     0.3270 hc         1 MMP       0.064200
     72 H381        -1.7450    -7.5480    -1.8530 hc         1 MMP       0.040700
     73 H382        -1.1740    -7.2450    -0.2100 hc         1 MMP       0.040700
     74 H45          2.4610    -0.9120     3.0230 ha         1 MMP       0.142000
     75 H461         1.7230    -2.4710     5.1270 hc         1 MMP       0.037700
     76 H462         0.7750    -0.9820     5.0040 hc         1 MMP       0.037700
     77 H463         0.0290    -2.4560     5.6370 hc         1 MMP       0.037700
     78 H471        -2.1600    -4.6990     3.4900 hc         1 MMP       0.056700
     79 H472        -1.4730    -4.0170     4.9680 hc         1 MMP       0.056700
     80 H481         0.4980    -5.4510     4.7360 hc         1 MMP       0.041700
     81 H482        -0.1360    -6.1040     3.2240 hc         1 MMP       0.041700
@<TRIPOS>BOND
     1     1     2 1
     2     1    44 1
     3     1    45 1
     4     1    46 1
     5     2     3 1
     6     2     6 1
     7     3     4 1
     8     3    37 2
     9     4     5 2
    10     4     8 1
    11     5     6 1
    12     5     9 1
    13     6     7 2
    14     7    12 1
    15     7    47 1
    16     8    48 1
    17     8    49 1
    18     8    50 1
    19     9    10 1
    20     9    51 1
    21     9    52 1
    22    10    53 1
    23    10    54 1
    24    10    55 1
    25    11    12 2
    26    11    15 1
    27    12    13 1
    28    13    14 2
    29    13    17 1
    30    14    15 1
    31    14    18 1
    32    15    16 2
    33    16    21 1
    34    16    56 1
    35    17    57 1
    36    17    58 1
    37    17    59 1
    38    18    19 1
    39    18    60 1
    40    18    61 1
    41    19    62 1
    42    19    63 1
    43    19    64 1
    44    20    21 1
    45    20    24 1
    46    20    65 1
    47    21    22 2
    48    22    23 1
    49    22    26 1
    50    23    24 2
    51    23    27 1
    52    24    25 1
    53    25    33 2
    54    25    66 1
    55    26    67 1
    56    26    68 1
    57    26    69 1
    58    27    28 1
    59    27    70 1
    60    27    71 1
    61    28    29 1
    62    28    72 1
    63    28    73 1
    64    29    30 1
    65    29    31 1
    66    32    33 1
    67    32    36 2
    68    33    34 1
    69    34    35 2
    70    34    39 1
    71    35    36 1
    72    35    38 1
    73    36    37 1
    74    37    74 1
    75    38    75 1
    76    38    76 1
    77    38    77 1
    78    39    40 1
    79    39    78 1
    80    39    79 1
    81    40    41 1
    82    40    80 1
    83    40    81 1
    84    41    42 1
    85    41    43 1
@<TRIPOS>SUBSTRUCTURE
     1 MMP         1 TEMP              0 ****  ****    0 ROOT
