@<TRIPOS>MOLECULE
molecule
    9     8     1     0     0
SMALL
bcc


@<TRIPOS>ATOM
      1 S1           0.0000     0.0000     0.0000 sh         1 MMQ      -0.405900
      2 P            2.4210     0.0000     1.7190 p5         1 MMQ       1.028700
      3 O1P          1.8990    -1.2790     2.4580 o          1 MMQ      -0.900500
      4 O2P          3.9880    -0.0000     1.7190 o          1 MMQ      -0.900500
      5 O3P          1.8990     1.2790     2.4580 o          1 MMQ      -0.900500
      6 C1P          1.8140     0.0000     0.0000 c3         1 MMQ      -0.061500
      7 HS1         -0.4430    -0.0000    -1.2520 hs         1 MMQ       0.083800
      8 HC11         2.1750    -0.8850    -0.5110 h1         1 MMQ       0.027700
      9 HC12         2.1750     0.8850    -0.5110 h1         1 MMQ       0.027700
@<TRIPOS>BOND
     1     1     6 1
     2     1     7 1
     3     2     3 1
     4     2     4 1
     5     2     5 1
     6     2     6 1
     7     6     8 1
     8     6     9 1
@<TRIPOS>SUBSTRUCTURE
     1 MMQ         1 TEMP              0 ****  ****    0 ROOT
