@<TRIPOS>MOLECULE
MMQ
    9     7     1     0     0
SMALL
bcc


@<TRIPOS>ATOM
      1 S1          0.0370   -0.5920   -0.3920 sh        1 MMQ      0.011000
      2 P           2.5600   -0.1160    1.9100 p3        1 MMQ      2.555000
      3 O1P         1.7850   -1.0690    2.7590 o         1 MMQ     -1.228333
      4 O2P         3.8460   -0.6240    1.3370 o         1 MMQ     -1.228333
      5 O3P         2.5580    1.3180    2.3420 o         1 MMQ     -1.228333
      6 C1P         1.4910    0.1350    0.0560 c2        1 MMQ     -0.900000
      7 HS1        -0.1590   -0.0930   -1.6110 hs        1 MMQ     -0.152000
      8 HC11        2.3680   -0.1820   -0.5220 h4        1 MMQ      0.085000
      9 HC12        1.4430    1.2220    0.2020 h4        1 MMQ      0.085000
@<TRIPOS>BOND
     1    1    6 1   
     2    1    7 1   
     3    2    3 1   
     4    2    4 1   
     5    2    5 1   
     6    6    8 1   
     7    6    9 1   
@<TRIPOS>SUBSTRUCTURE
     1 MMQ         1 TEMP              0 ****  ****    0 ROOT
