@<TRIPOS>MOLECULE
MMR
   41    41     1     0     0
SMALL
bcc


@<TRIPOS>ATOM
      1 C1           0.0000     0.0000     0.0000 c3         1 MMR       0.377900
      2 O1          -0.4760     0.0570    -1.3470 os         1 MMR      -0.372600
      3 C2           1.5310     0.0000     0.0000 c3         1 MMR      -0.042300
      4 N2           2.0210    -1.1970    -0.6880 ns         1 MMR      -0.172900
      5 C3           2.0340     0.0000     1.4470 c3         1 MMR       0.145100
      6 O3           3.4600     0.0740     1.4570 os         1 MMR      -0.351600
      7 C4           1.4520     1.2140     2.1780 c3         1 MMR       0.151100
      8 O4           1.8560     1.1850     3.5490 oh         1 MMR      -0.576800
      9 C5          -0.0760     1.1670     2.0940 c3         1 MMR       0.162100
     10 O5          -0.4750     1.1380     0.7220 os         1 MMR      -0.419600
     11 C6          -0.6630     2.4080     2.7700 c3         1 MMR       0.221400
     12 O6          -2.0880     2.3080     2.7930 oh         1 MMR      -0.585800
     13 C7          -1.8960    -0.0530    -1.4650 c3         1 MMR       0.247700
     14 C8           2.2630    -1.1610    -2.0130 c          1 MMR       0.586100
     15 O8           2.0750    -0.1370    -2.6360 o          1 MMR      -0.652100
     16 C9           2.7670    -2.3910    -2.7220 c3         1 MMR      -0.067100
     17 C10          4.1070    -1.1860     1.6430 c3         1 MMR       0.060100
     18 C11          5.4460    -1.1720     0.9510 c          1 MMR       0.972600
     19 O11          5.8490    -0.1540     0.4380 o          1 MMR      -0.881300
     20 C12          4.3080    -1.4420     3.1380 c3         1 MMR      -0.019100
     21 O12          6.1900    -2.2870     0.9050 o          1 MMR      -0.881300
     22 H1          -0.3590    -0.9040     0.4770 h2         1 MMR      -0.014300
     23 H2           1.8920     0.8870    -0.5060 h1         1 MMR       0.093700
     24 HN2          2.1860    -2.0380    -0.1720 hn         1 MMR       0.180500
     25 H3           1.7090    -0.9080     1.9410 h1         1 MMR       0.015700
     26 H4           1.8100     2.1220     1.7090 h1         1 MMR       0.027700
     27 HO4          2.2510     2.0100     3.7770 ho         1 MMR       0.391000
     28 H5          -0.4360     0.2750     2.5920 h1         1 MMR       0.021700
     29 H6          -0.2890     2.4780     3.7840 h1         1 MMR      -0.005300
     30 H6A         -0.3730     3.2930     2.2160 h1         1 MMR      -0.005300
     31 HO6         -2.4430     2.9980     3.3280 ho         1 MMR       0.379000
     32 H7          -2.1530    -0.3370    -2.4790 h1         1 MMR      -0.014633
     33 H7A         -2.2590    -0.8060    -0.7760 h1         1 MMR      -0.014633
     34 H7B         -2.3520     0.9010    -1.2310 h1         1 MMR      -0.014633
     35 H9           2.3950    -2.4000    -3.7390 hc         1 MMR       0.020367
     36 H9A          2.4190    -3.2760    -2.2020 hc         1 MMR       0.020367
     37 H9B          3.8510    -2.3830    -2.7330 hc         1 MMR       0.020367
     38 H10          3.4920    -1.9730     1.2220 h1         1 MMR      -0.008300
     39 H12          4.3610    -0.4960     3.6620 hc         1 MMR       0.002367
     40 H12A         3.4750    -2.0210     3.5200 hc         1 MMR       0.002367
     41 H12B         5.2290    -1.9920     3.2890 hc         1 MMR       0.002367
@<TRIPOS>BOND
     1     1     2 1   
     2     1     3 1   
     3     1    10 1   
     4     1    22 1   
     5     2    13 1   
     6     3     4 1   
     7     3     5 1   
     8     3    23 1   
     9     4    14 1   
    10     4    24 1   
    11     5     6 1   
    12     5     7 1   
    13     5    25 1   
    14     6    17 1   
    15     7     8 1   
    16     7     9 1   
    17     7    26 1   
    18     8    27 1   
    19     9    10 1   
    20     9    11 1   
    21     9    28 1   
    22    11    12 1   
    23    11    29 1   
    24    11    30 1   
    25    12    31 1   
    26    13    32 1   
    27    13    33 1   
    28    13    34 1   
    29    14    15 2   
    30    14    16 1   
    31    16    35 1   
    32    16    36 1   
    33    16    37 1   
    34    17    18 1   
    35    17    20 1   
    36    17    38 1   
    37    18    19 1   
    38    18    21 1   
    39    20    39 1   
    40    20    40 1   
    41    20    41 1   
@<TRIPOS>SUBSTRUCTURE
     1 MMR         1 TEMP              0 ****  ****    0 ROOT
