@<TRIPOS>MOLECULE
molecule
   14    13     1     0     0
SMALL
bcc


@<TRIPOS>ATOM
      1 N1           0.0000     0.0000     0.0000 ns         1 MMU      -0.609900
      2 N2          -2.0220     0.0000     1.1660 ns         1 MMU      -0.609900
      3 CAA          1.4650     0.0000     0.0000 c3         1 MMU       0.122300
      4 CAB         -2.7550    -0.0000     2.4340 c3         1 MMU       0.122300
      5 OAC         -0.0670     0.0000     2.2190 o          1 MMU      -0.655100
      6 CAF         -0.6740     0.0000     1.1670 c          1 MMU       0.780100
      7 HN1         -0.5000     0.0000    -0.8670 hn         1 MMU       0.304500
      8 HN2         -2.5220     0.0000     0.2990 hn         1 MMU       0.304500
      9 HAA          1.8260     0.8850     0.5110 h1         1 MMU       0.040367
     10 HAAA         1.8260    -0.8850     0.5110 h1         1 MMU       0.040367
     11 HAAB         1.8260    -0.0000    -1.0210 h1         1 MMU       0.040367
     12 HAB         -2.4940    -0.8850     3.0030 h1         1 MMU       0.040367
     13 HABA        -2.4940     0.8850     3.0030 h1         1 MMU       0.040367
     14 HABB        -3.8200     0.0000     2.2360 h1         1 MMU       0.040367
@<TRIPOS>BOND
     1     1     3 1
     2     1     6 1
     3     2     4 1
     4     2     6 1
     5     5     6 2
     6     1     7 1
     7     2     8 1
     8     3     9 1
     9     3    10 1
    10     3    11 1
    11     4    12 1
    12     4    13 1
    13     4    14 1
@<TRIPOS>SUBSTRUCTURE
     1 MMU         1 TEMP              0 ****  ****    0 ROOT
