@<TRIPOS>MOLECULE
molecule
   49    50     1     0     0
SMALL
bcc


@<TRIPOS>ATOM
      1 C1           0.0000     0.0000     0.0000 ca         1 MMV       0.725200
      2 N2           1.3290     0.0000     0.0000 nb         1 MMV      -0.825000
      3 C3           2.0040     0.0000     1.1390 ca         1 MMV       0.960900
      4 N4           1.3920     0.0000     2.3120 nb         1 MMV      -0.788000
      5 C5           0.0670     0.0000     2.3900 ca         1 MMV       0.487600
      6 C6          -0.6780    -0.0000     1.2250 ca         1 MMV      -0.209500
      7 N7          -0.7040     0.0040    -1.1960 nv         1 MMV      -0.995500
      8 N8           3.3900    -0.0000     1.1020 nv         1 MMV      -1.061500
      9 C9          -0.6170     0.0000     3.7330 c3         1 MMV      -0.127700
     10 C10         -0.8490     1.4430     4.1870 c3         1 MMV      -0.083100
     11 O11         -2.0390     0.0050     1.2680 os         1 MMV      -0.333900
     12 C12         -2.6920    -1.2650     1.2860 c3         1 MMV       0.133400
     13 C13         -4.2080    -1.0590     1.3340 c3         1 MMV      -0.084400
     14 C14         -4.9070    -2.4190     1.3530 c3         1 MMV       0.144400
     15 O15         -6.3230    -2.2270     1.3990 os         1 MMV      -0.304900
     16 C16         -7.0970    -3.3430     1.4200 ca         1 MMV       0.134100
     17 C17         -8.4800    -3.2300     1.4590 ca         1 MMV      -0.075300
     18 C18         -9.2640    -4.3660     1.4810 ca         1 MMV      -0.101000
     19 C19         -8.6730    -5.6160     1.4640 ca         1 MMV      -0.170000
     20 C20         -7.2970    -5.7320     1.4270 ca         1 MMV      -0.120000
     21 C21         -6.5070    -4.5980     1.4000 ca         1 MMV      -0.228000
     22 C22         -9.1240    -1.8670     1.4770 c3         1 MMV      -0.021100
     23 C23         -9.2680    -1.3520     0.0430 c3         1 MMV      -0.177400
     24 C24         -9.9130     0.0100     0.0620 c          1 MMV       0.892600
     25 O25        -10.1410     0.6600    -1.0900 o          1 MMV      -0.855800
     26 O26        -10.2240     0.5160     1.1120 o          1 MMV      -0.855800
     27 H1          -0.2130    -0.0610    -2.0660 hn         1 MMV       0.449300
     28 H2          -1.6970     0.1290    -1.1910 hn         1 MMV       0.449300
     29 H3           3.8890     0.8650     1.0360 hn         1 MMV       0.440300
     30 H4           3.8920    -0.8650     1.1390 hn         1 MMV       0.440300
     31 H5          -1.5690    -0.5110     3.6540 hc         1 MMV       0.059200
     32 H6           0.0080    -0.5100     4.4570 hc         1 MMV       0.059200
     33 H7          -1.1890     2.0350     3.3470 hc         1 MMV       0.041033
     34 H8           0.0780     1.8550     4.5680 hc         1 MMV       0.041033
     35 H9          -1.5990     1.4600     4.9680 hc         1 MMV       0.041033
     36 H10         -2.3750    -1.8230     2.1590 h1         1 MMV       0.026200
     37 H11         -2.4320    -1.8180     0.3910 h1         1 MMV       0.026200
     38 H12         -4.5240    -0.5020     0.4610 hc         1 MMV       0.074700
     39 H13         -4.4680    -0.5060     2.2290 hc         1 MMV       0.074700
     40 H14         -4.5900    -2.9760     2.2260 h1         1 MMV       0.027200
     41 H15         -4.6460    -2.9710     0.4580 h1         1 MMV       0.027200
     42 H16        -10.3430    -4.2780     1.5100 ha         1 MMV       0.138000
     43 H17         -9.2910    -6.5060     1.4840 ha         1 MMV       0.115000
     44 H18         -6.8370    -6.7130     1.4120 ha         1 MMV       0.112000
     45 H19         -5.4280    -4.6900     1.3700 ha         1 MMV       0.118000
     46 H20         -8.5070    -1.1830     2.0460 hc         1 MMV       0.059200
     47 H21        -10.1030    -1.9370     1.9360 hc         1 MMV       0.059200
     48 H22         -8.2890    -1.2830    -0.4160 hc         1 MMV       0.032700
     49 H23         -9.8860    -2.0370    -0.5260 hc         1 MMV       0.032700
@<TRIPOS>BOND
     1     8     3 1
     2     3     4 ar
     3     3     2 ar
     4     4     5 ar
     5     2     1 ar
     6    10     9 1
     7     5     9 1
     8     5     6 ar
     9    26    24 1
    10    25    24 1
    11     1     6 ar
    12     1     7 1
    13    24    23 1
    14     6    11 1
    15    23    22 1
    16    11    12 1
    17    12    13 1
    18    22    17 1
    19    17    18 ar
    20    17    16 ar
    21    18    19 ar
    22    15    16 1
    23    15    14 1
    24    13    14 1
    25    16    21 ar
    26    19    20 ar
    27    21    20 ar
    28     7    27 1
    29     7    28 1
    30     8    29 1
    31     8    30 1
    32     9    31 1
    33     9    32 1
    34    10    33 1
    35    10    34 1
    36    10    35 1
    37    12    36 1
    38    12    37 1
    39    13    38 1
    40    13    39 1
    41    14    40 1
    42    14    41 1
    43    18    42 1
    44    19    43 1
    45    20    44 1
    46    21    45 1
    47    22    46 1
    48    22    47 1
    49    23    48 1
    50    23    49 1
@<TRIPOS>SUBSTRUCTURE
     1 MMV         1 TEMP              0 ****  ****    0 ROOT
