@<TRIPOS>MOLECULE
MMY
   48    52     1     0     0
SMALL
bcc


@<TRIPOS>ATOM
      1 C1           0.0000     0.0000     0.0000 ca         1 MMY      -0.127000
      2 C2           1.3840     0.0000     0.0000 ca         1 MMY      -0.185300
      3 C3           2.0600     0.0000     1.2070 ca         1 MMY       0.367200
      4 N4           1.4030     0.0010     2.3500 nb         1 MMY      -0.552000
      5 C5           0.0860     0.0010     2.3950 ca         1 MMY       0.347200
      6 C6          -0.6620     0.0010     1.2250 ca         1 MMY      -0.091700
      7 N7          -2.0590     0.0030     1.2770 nh         1 MMY      -0.237700
      8 C8          -2.8530     0.0030     2.5100 c3         1 MMY       0.147800
      9 C9          -4.3190     0.0040     2.0440 c3         1 MMY       0.054900
     10 C10         -4.2320     0.0040     0.5380 ca         1 MMY      -0.441900
     11 C11         -2.8920     0.0090     0.1720 ca         1 MMY       0.549200
     12 N12         -2.5920     0.0150    -1.1320 nb         1 MMY      -0.691000
     13 C13         -3.5440     0.0220    -2.0500 ca         1 MMY       0.744900
     14 N14         -3.1840     0.0280    -3.3870 nh         1 MMY      -0.446300
     15 C15         -4.3720     0.0340    -4.2520 c3         1 MMY       0.102300
     16 C16         -3.9310     0.1020    -5.7160 c3         1 MMY       0.211400
     17 O17         -3.0610    -0.9980    -5.9980 os         1 MMY      -0.411600
     18 C18         -1.8920    -1.0350    -5.1740 c3         1 MMY       0.211400
     19 C19         -2.3140    -1.1140    -3.7040 c3         1 MMY       0.102300
     20 N20         -4.8290     0.0210    -1.7330 nb         1 MMY      -0.708000
     21 C21         -5.2080     0.0040    -0.4530 cp         1 MMY       0.587800
     22 C22         -6.6460     0.0060    -0.0940 cp         1 MMY      -0.473100
     23 C23         -7.5800     0.6940    -0.8750 ca         1 MMY       0.506700
     24 N24         -8.8520     0.6720    -0.5220 nb         1 MMY      -0.687500
     25 C25         -9.2470     0.0080     0.5550 ca         1 MMY       0.714900
     26 N26        -10.5880     0.0090     0.8890 nv         1 MMY      -0.514500
     27 N29         -8.3930    -0.6560     1.3200 nb         1 MMY      -0.687500
     28 C30         -7.1060    -0.6870     1.0300 ca         1 MMY       0.506700
     29 H1          -0.5550    -0.0000    -0.9300 ha         1 MMY       0.165000
     30 H2           1.9320    -0.0010    -0.9350 ha         1 MMY       0.112000
     31 H3           3.1430    -0.0000     1.2130 h4         1 MMY      -0.018900
     32 H5          -0.4180     0.0020     3.3540 h4         1 MMY      -0.016900
     33 H8          -2.6490     0.9060     3.0720 h1         1 MMY       0.029200
     34 H8A         -2.6510    -0.9010     3.0720 h1         1 MMY       0.029200
     35 H9          -4.8100     0.9090     2.3830 hc         1 MMY       0.033700
     36 H9A         -4.8110    -0.9000     2.3830 hc         1 MMY       0.033700
     37 H15         -4.9410    -0.8730    -4.0890 h1         1 MMY       0.033450
     38 H15A        -4.9830     0.8980    -4.0190 h1         1 MMY       0.033450
     39 H16         -3.4040     1.0320    -5.8910 h1         1 MMY       0.014450
     40 H16A        -4.8010     0.0470    -6.3580 h1         1 MMY       0.014450
     41 H18         -1.3000    -1.9060    -5.4260 h1         1 MMY       0.014450
     42 H18A        -1.3100    -0.1360    -5.3330 h1         1 MMY       0.014450
     43 H19         -2.8550    -2.0370    -3.5330 h1         1 MMY       0.033450
     44 H19A        -1.4330    -1.0830    -3.0740 h1         1 MMY       0.033450
     45 H23         -7.2630     1.2390    -1.7570 h4         1 MMY      -0.005900
     46 HN26       -10.9970    -0.7970     1.3200 hn         1 MMY       0.276800
     47 HN2A       -11.1490     0.8180     0.7100 hn         1 MMY       0.276800
     48 H30         -6.4130    -1.2320     1.6600 h4         1 MMY      -0.005900
@<TRIPOS>BOND
     1     1     2 ar  
     2     1     6 ar  
     3     1    29 1   
     4     2     3 ar  
     5     2    30 1   
     6     3     4 ar  
     7     3    31 1   
     8     4     5 ar  
     9     5     6 ar  
    10     5    32 1   
    11     6     7 1   
    12     7     8 1   
    13     7    11 1   
    14     8     9 1   
    15     8    33 1   
    16     8    34 1   
    17     9    10 1   
    18     9    35 1   
    19     9    36 1   
    20    10    11 ar  
    21    10    21 ar  
    22    11    12 ar  
    23    12    13 ar  
    24    13    14 1   
    25    13    20 ar  
    26    14    15 1   
    27    14    19 1   
    28    15    16 1   
    29    15    37 1   
    30    15    38 1   
    31    16    17 1   
    32    16    39 1   
    33    16    40 1   
    34    17    18 1   
    35    18    19 1   
    36    18    41 1   
    37    18    42 1   
    38    19    43 1   
    39    19    44 1   
    40    20    21 ar  
    41    21    22 1   
    42    22    23 ar  
    43    22    28 ar  
    44    23    24 ar  
    45    23    45 1   
    46    24    25 ar  
    47    25    26 1   
    48    25    27 ar  
    49    26    46 1   
    50    26    47 1   
    51    27    28 ar  
    52    28    48 1   
@<TRIPOS>SUBSTRUCTURE
     1 MMY         1 TEMP              0 ****  ****    0 ROOT
