@<TRIPOS>MOLECULE
molecule
   48    52     1     0     0
SMALL
bcc


@<TRIPOS>ATOM
      1 C1           0.0000     0.0000     0.0000 ca         1 MMY      -0.134000
      2 C2           1.3840     0.0000     0.0000 ca         1 MMY      -0.225300
      3 C3           2.0600     0.0000     1.2070 ca         1 MMY       0.383200
      4 N4           1.4030     0.0010     2.3500 nb         1 MMY      -0.664000
      5 C5           0.0860     0.0010     2.3950 ca         1 MMY       0.370200
      6 C6          -0.6620     0.0010     1.2250 ca         1 MMY       0.052300
      7 N7          -2.0590     0.0030     1.2770 nh         1 MMY      -0.660700
      8 C8          -2.8530     0.0030     2.5100 c3         1 MMY       0.228800
      9 C9          -4.3190     0.0040     2.0440 c3         1 MMY      -0.029100
     10 C10         -4.2320     0.0040     0.5380 ca         1 MMY      -0.426900
     11 C11         -2.8920     0.0090     0.1720 ca         1 MMY       0.740200
     12 N12         -2.5920     0.0150    -1.1320 nb         1 MMY      -0.814000
     13 C13         -3.5440     0.0220    -2.0500 ca         1 MMY       0.912900
     14 N14         -3.1840     0.0280    -3.3870 nh         1 MMY      -0.683300
     15 C15         -4.3720     0.0340    -4.2520 c3         1 MMY       0.137800
     16 C16         -3.9310     0.1020    -5.7160 c3         1 MMY       0.134400
     17 O17         -3.0610    -0.9980    -5.9980 os         1 MMY      -0.424600
     18 C18         -1.8920    -1.0350    -5.1740 c3         1 MMY       0.134400
     19 C19         -2.3140    -1.1140    -3.7040 c3         1 MMY       0.137800
     20 N20         -4.8290     0.0210    -1.7330 nb         1 MMY      -0.809000
     21 C21         -5.2080     0.0040    -0.4530 cp         1 MMY       0.601800
     22 C22         -6.6460     0.0060    -0.0940 cp         1 MMY      -0.463100
     23 C23         -7.5800     0.6940    -0.8750 ca         1 MMY       0.522200
     24 N24         -8.8520     0.6720    -0.5220 nb         1 MMY      -0.788500
     25 C25         -9.2470     0.0080     0.5550 ca         1 MMY       0.948900
     26 N26        -10.5880     0.0090     0.8890 nv         1 MMY      -1.000500
     27 N29         -8.3930    -0.6560     1.3200 nb         1 MMY      -0.788500
     28 C30         -7.1060    -0.6870     1.0300 ca         1 MMY       0.522200
     29 H1          -0.5550    -0.0000    -0.9300 ha         1 MMY       0.188000
     30 H2           1.9320    -0.0010    -0.9350 ha         1 MMY       0.140000
     31 H3           3.1430    -0.0000     1.2130 h4         1 MMY       0.023100
     32 H5          -0.4180     0.0020     3.3540 h4         1 MMY       0.020100
     33 H8          -2.6490     0.9060     3.0720 h1         1 MMY       0.060200
     34 H8A         -2.6510    -0.9010     3.0720 h1         1 MMY       0.060200
     35 H9          -4.8100     0.9090     2.3830 hc         1 MMY       0.065200
     36 H9A         -4.8110    -0.9000     2.3830 hc         1 MMY       0.065200
     37 H15         -4.9410    -0.8730    -4.0890 h1         1 MMY       0.062200
     38 H15A        -4.9830     0.8980    -4.0190 h1         1 MMY       0.062200
     39 H16         -3.4040     1.0320    -5.8910 h1         1 MMY       0.057450
     40 H16A        -4.8010     0.0470    -6.3580 h1         1 MMY       0.057450
     41 H18         -1.3000    -1.9060    -5.4260 h1         1 MMY       0.057450
     42 H18A        -1.3100    -0.1360    -5.3330 h1         1 MMY       0.057450
     43 H19         -2.8550    -2.0370    -3.5330 h1         1 MMY       0.062200
     44 H19A        -1.4330    -1.0830    -3.0740 h1         1 MMY       0.062200
     45 H23         -7.2630     1.2390    -1.7570 h4         1 MMY       0.040100
     46 HN26       -10.9970    -0.7970     1.3200 hn         1 MMY       0.451300
     47 HN2A       -11.1490     0.8180     0.7100 hn         1 MMY       0.451300
     48 H30         -6.4130    -1.2320     1.6600 h4         1 MMY       0.040100
@<TRIPOS>BOND
     1     1     2 ar
     2     1     6 ar
     3     2     3 ar
     4     3     4 ar
     5     4     5 ar
     6     5     6 ar
     7     6     7 1
     8     7     8 1
     9     7    11 1
    10     8     9 1
    11     9    10 1
    12    10    11 ar
    13    10    21 ar
    14    11    12 ar
    15    12    13 ar
    16    13    14 1
    17    13    20 ar
    18    14    15 1
    19    14    19 1
    20    15    16 1
    21    16    17 1
    22    17    18 1
    23    18    19 1
    24    20    21 ar
    25    21    22 1
    26    22    23 ar
    27    22    28 ar
    28    23    24 ar
    29    24    25 ar
    30    25    26 1
    31    25    27 ar
    32    27    28 ar
    33     1    29 1
    34     2    30 1
    35     3    31 1
    36     5    32 1
    37     8    33 1
    38     8    34 1
    39     9    35 1
    40     9    36 1
    41    15    37 1
    42    15    38 1
    43    16    39 1
    44    16    40 1
    45    18    41 1
    46    18    42 1
    47    19    43 1
    48    19    44 1
    49    23    45 1
    50    26    46 1
    51    26    47 1
    52    28    48 1
@<TRIPOS>SUBSTRUCTURE
     1 MMY         1 TEMP              0 ****  ****    0 ROOT
