@<TRIPOS>MOLECULE
MMZ
   13    13     1     0     0
SMALL
bcc


@<TRIPOS>ATOM
      1 N1         -0.0020    0.0760   -0.0240 n         1 MMZ     -0.397100
      2 C1A         1.3920   -0.0820   -0.0330 cc        1 MMZ     -0.124400
      3 C2         -0.4710    0.1260    1.2990 c         1 MMZ      0.494400
      4 S2         -1.9860    0.2960    1.7660 s         1 MMZ     -0.559400
      5 N3          0.6770   -0.0060    2.1070 n         1 MMZ     -0.300000
      6 C3A         1.8140   -0.1330    1.2880 cd        1 MMZ     -0.122400
      7 C4          0.6780   -0.0110    3.5330 c3        1 MMZ      0.078300
      8 HN1        -0.5910    0.1450   -0.8150 hn        1 MMZ      0.364500
      9 H1A         1.9630   -0.1440   -0.9580 h4        1 MMZ      0.185000
     10 H3A         2.8130   -0.2470    1.7060 h4        1 MMZ      0.186000
     11 H41         1.0950   -0.9820    3.9110 h1        1 MMZ      0.065367
     12 H42         1.3090    0.8360    3.9160 h1        1 MMZ      0.065367
     13 H43        -0.3810    0.1130    3.9000 h1        1 MMZ      0.065367
@<TRIPOS>BOND
     1    1    2 1
     2    1    3 1
     3    1    8 1
     4    2    6 2
     5    2    9 1
     6    3    4 2
     7    3    5 1
     8    5    6 1
     9    5    7 1
    10    6   10 1
    11    7   11 1
    12    7   12 1
    13    7   13 1
@<TRIPOS>SUBSTRUCTURE
     1 MMZ         1 TEMP              0 ****  ****    0 ROOT
