@<TRIPOS>MOLECULE
molecule
   19    19     1     0     0
SMALL
bcc


@<TRIPOS>ATOM
      1 N1           0.0000     0.0000     0.0000 n7         1 MN1      -0.799200
      2 C2           1.4650     0.0000     0.0000 c3         1 MN1       0.141300
      3 C3           1.9850     0.0000     1.4400 c3         1 MN1      -0.052900
      4 C4           1.5030     1.2700     2.1470 c3         1 MN1      -0.171700
      5 C            1.9140     1.2260     3.5970 c          1 MN1       0.896600
      6 O1           2.5300     0.2780     4.0210 o          1 MN1      -0.853300
      7 O2           1.5960     2.2410     4.4140 o          1 MN1      -0.853300
      8 C5          -0.0230     1.3460     2.0490 c3         1 MN1      -0.052900
      9 C6          -0.4370     1.2740     0.5790 c3         1 MN1       0.141300
     10 HN1         -0.3340    -0.0710    -0.9410 hn         1 MN1       0.318800
     11 H21          1.8240     0.8860    -0.5100 h1         1 MN1       0.009700
     12 H22          1.8240    -0.8860    -0.5100 h1         1 MN1       0.009700
     13 H31          1.6040    -0.8700     1.9610 hc         1 MN1       0.052700
     14 H32          3.0680    -0.0210     1.4330 hc         1 MN1       0.052700
     15 H4           1.9400     2.1380     1.6680 hc         1 MN1       0.033700
     16 H51         -0.3660     2.2820     2.4750 hc         1 MN1       0.052700
     17 H52         -0.4610     0.5150     2.5880 hc         1 MN1       0.052700
     18 H61         -1.5150     1.3510     0.5050 h1         1 MN1       0.009700
     19 H62          0.0250     2.0910     0.0360 h1         1 MN1       0.009700
@<TRIPOS>BOND
     1     1     2 1
     2     1     9 1
     3     1    10 1
     4     2     3 1
     5     2    11 1
     6     2    12 1
     7     3     4 1
     8     3    13 1
     9     3    14 1
    10     4     5 1
    11     4     8 1
    12     4    15 1
    13     5     6 1
    14     5     7 1
    15     8     9 1
    16     8    16 1
    17     8    17 1
    18     9    18 1
    19     9    19 1
@<TRIPOS>SUBSTRUCTURE
     1 MN1         1 TEMP              0 ****  ****    0 ROOT
