@<TRIPOS>MOLECULE
MN2
   31    31     1     0     0
SMALL
bcc


@<TRIPOS>ATOM
      1 C1           0.0000     0.0000     0.0000 ca         1 MN2      -0.004300
      2 C2           1.3820     0.0000     0.0000 ca         1 MN2      -0.073500
      3 C3           2.0740     0.0000     1.1970 ca         1 MN2      -0.072500
      4 C4           1.3830    -0.0010     2.3940 ca         1 MN2      -0.239300
      5 C5           0.0010    -0.0060     2.3950 ca         1 MN2      -0.072500
      6 C6          -0.6900    -0.0020     1.1980 ca         1 MN2      -0.073500
      7 C7          -0.7540     0.0010    -1.3050 c3         1 MN2       0.176100
      8 N8          -0.9980    -1.3840    -1.7300 n7         1 MN2      -0.588200
      9 C9          -1.7320    -1.3120    -3.0000 c3         1 MN2       0.141800
     10 C10         -2.0220    -2.7280    -3.5040 c3         1 MN2      -0.134400
     11 C           -2.7750    -2.6530    -4.8060 c          1 MN2       0.978600
     12 O1          -3.0510    -1.5780    -5.2850 o          1 MN2      -0.894300
     13 O2          -3.1380    -3.7810    -5.4370 o          1 MN2      -0.894300
     14 C11          2.1370    -0.0020     3.7000 c3         1 MN2       0.045100
     15 N12          2.3820     1.3840     4.1240 nz         1 MN2       0.067400
     16 H2           1.9240     0.0010    -0.9380 ha         1 MN2       0.132500
     17 H3           3.1580     0.0020     1.1970 ha         1 MN2       0.100500
     18 H5          -0.5410    -0.0080     3.3330 ha         1 MN2       0.100500
     19 H6          -1.7740    -0.0040     1.1980 ha         1 MN2       0.132500
     20 H71         -0.1690     0.5130    -2.0590 h1         1 MN2       0.022200
     21 H72         -1.7010     0.5110    -1.1740 h1         1 MN2       0.022200
     22 HN8         -0.1230    -1.8470    -1.8770 hn         1 MN2       0.247800
     23 H91         -2.6670    -0.7850    -2.8480 h1         1 MN2       0.021700
     24 H92         -1.1350    -0.7830    -3.7330 h1         1 MN2       0.021700
     25 H101        -1.0870    -3.2540    -3.6560 hc         1 MN2       0.010700
     26 H102        -2.6190    -3.2560    -2.7710 hc         1 MN2       0.010700
     27 H111         3.0830    -0.5120     3.5710 hx         1 MN2       0.077200
     28 H112         1.5510    -0.5120     4.4550 hx         1 MN2       0.077200
     29 HN21         1.5080     1.8620     4.2220 hn         1 MN2       0.219800
     30 HN22         2.9410     1.8490     3.4370 hn         1 MN2       0.219800
     31 HN23         2.8620     1.3840     5.0020 hn         1 MN2       0.219800
@<TRIPOS>BOND
     1     1     2 ar  
     2     1     6 ar  
     3     1     7 1   
     4     2     3 ar  
     5     2    16 1   
     6     3     4 ar  
     7     3    17 1   
     8     4     5 ar  
     9     4    14 1   
    10     5     6 ar  
    11     5    18 1   
    12     6    19 1   
    13     7     8 1   
    14     7    20 1   
    15     7    21 1   
    16     8     9 1   
    17     8    22 1   
    18     9    10 1   
    19     9    23 1   
    20     9    24 1   
    21    10    11 1   
    22    10    25 1   
    23    10    26 1   
    24    11    12 1   
    25    11    13 1   
    26    14    15 1   
    27    14    27 1   
    28    14    28 1   
    29    15    29 1   
    30    15    30 1   
    31    15    31 1   
@<TRIPOS>SUBSTRUCTURE
     1 MN2         1 TEMP              0 ****  ****    0 ROOT
