@<TRIPOS>MOLECULE
molecule
   31    31     1     0     0
SMALL
bcc


@<TRIPOS>ATOM
      1 C1           0.0000     0.0000     0.0000 ca         1 MN7      -0.097600
      2 C           -0.7410    -0.0000    -1.2780 c          1 MN7       0.881200
      3 O1          -0.1350     0.0000    -2.3320 o          1 MN7      -0.838300
      4 O2          -2.0870     0.0010    -1.2770 o          1 MN7      -0.838300
      5 C2           1.3960     0.0000     0.0000 ca         1 MN7      -0.103000
      6 C3           2.0820     0.0000     1.1970 ca         1 MN7      -0.148000
      7 C4           1.3890    -0.0000     2.3950 ca         1 MN7      -0.121300
      8 C5           0.0060    -0.0050     2.4010 ca         1 MN7      -0.148000
      9 C6          -0.6920    -0.0010     1.2110 ca         1 MN7      -0.103000
     10 C7           2.1450    -0.0000     3.6980 c3         1 MN7       0.200100
     11 N8           2.3910     1.3840     4.1220 n7         1 MN7      -0.791200
     12 C9           3.1270     1.3140     5.3910 c3         1 MN7       0.147800
     13 C10          3.4170     2.7290     5.8930 c3         1 MN7      -0.076700
     14 C11          4.1850     2.6540     7.2140 c3         1 MN7      -0.082600
     15 C12          4.2590     3.4740     4.8560 c3         1 MN7      -0.082600
     16 H2           1.9400     0.0000    -0.9370 ha         1 MN7       0.149000
     17 H3           3.1650     0.0020     1.1990 ha         1 MN7       0.104500
     18 H5          -0.5300    -0.0060     3.3420 ha         1 MN7       0.104500
     19 H6          -1.7750    -0.0050     1.2180 ha         1 MN7       0.149000
     20 H71          3.0920    -0.5110     3.5660 h1         1 MN7       0.025700
     21 H72          1.5620    -0.5110     4.4540 h1         1 MN7       0.025700
     22 HN8          1.5170     1.8480     4.2680 hn         1 MN7       0.353800
     23 H91          4.0610     0.7860     5.2380 h1         1 MN7       0.025700
     24 H92          2.5310     0.7850     6.1250 h1         1 MN7       0.025700
     25 H10          2.4830     3.2560     6.0470 hc         1 MN7       0.045700
     26 H111         4.3590     3.6560     7.5870 hc         1 MN7       0.032033
     27 H112         5.1340     2.1590     7.0520 hc         1 MN7       0.032033
     28 H113         3.6040     2.0950     7.9380 hc         1 MN7       0.032033
     29 H121         4.6900     4.3590     5.3090 hc         1 MN7       0.032033
     30 H122         5.0530     2.8270     4.5030 hc         1 MN7       0.032033
     31 H123         3.6320     3.7640     4.0220 hc         1 MN7       0.032033
@<TRIPOS>BOND
     1     1     2 1
     2     1     5 ar
     3     1     9 ar
     4     2     3 1
     5     2     4 1
     6     5     6 ar
     7     5    16 1
     8     6     7 ar
     9     6    17 1
    10     7     8 ar
    11     7    10 1
    12     8     9 ar
    13     8    18 1
    14     9    19 1
    15    10    11 1
    16    10    20 1
    17    10    21 1
    18    11    12 1
    19    11    22 1
    20    12    13 1
    21    12    23 1
    22    12    24 1
    23    13    14 1
    24    13    15 1
    25    13    25 1
    26    14    26 1
    27    14    27 1
    28    14    28 1
    29    15    29 1
    30    15    30 1
    31    15    31 1
@<TRIPOS>SUBSTRUCTURE
     1 MN7         1 TEMP              0 ****  ****    0 ROOT
