@<TRIPOS>MOLECULE
molecule
   38    40     1     0     0
SMALL
bcc


@<TRIPOS>ATOM
      1 C1           0.0000     0.0000     0.0000 c          1 MN8       0.800100
      2 O1           1.2150     0.0000     0.0000 o          1 MN8      -0.820300
      3 O2          -0.6740     0.0000     1.1680 o          1 MN8      -0.820300
      4 C2          -0.7360    -0.0010    -1.2730 cc         1 MN8       0.329800
      5 C3          -0.0760     0.0100    -2.4760 cd         1 MN8      -0.063700
      6 C4           1.4050     0.0190    -2.7510 c3         1 MN8       0.003600
      7 C5           1.7810    -1.2260    -3.5570 c3         1 MN8      -0.084100
      8 C6           1.7690     1.2720    -3.5500 c3         1 MN8      -0.084100
      9 S7          -1.4010     0.0070    -3.5970 ss         1 MN8      -0.380300
     10 C8          -2.6990    -0.0010    -2.4480 cd         1 MN8       0.412700
     11 N9          -2.0700    -0.0010    -1.3030 nc         1 MN8      -0.609000
     12 C10         -4.1830    -0.0080    -2.7060 c3         1 MN8       0.165200
     13 N11         -4.7820    -1.2080    -2.1050 n7         1 MN8      -0.770200
     14 C12         -6.1270    -1.3350    -2.6720 c3         1 MN8       0.192100
     15 C13         -6.9290    -0.0840    -2.4330 ca         1 MN8      -0.075300
     16 C14         -6.3200     1.1200    -2.1560 ca         1 MN8      -0.051300
     17 C15         -4.8190     1.2320    -2.0760 c3         1 MN8      -0.024100
     18 C16         -7.0890     2.2540    -1.9450 ca         1 MN8      -0.129000
     19 C17         -8.4670     2.1800    -2.0100 ca         1 MN8      -0.134000
     20 C18         -9.0790     0.9720    -2.2870 ca         1 MN8      -0.143000
     21 C19         -8.3130    -0.1560    -2.4980 ca         1 MN8      -0.129000
     22 H4           1.9470     0.0190    -1.8130 hc         1 MN8       0.144700
     23 H51          1.4550    -2.1120    -3.0250 hc         1 MN8       0.026700
     24 H52          1.2990    -1.1880    -4.5260 hc         1 MN8       0.026700
     25 H53          2.8560    -1.2600    -3.6890 hc         1 MN8       0.026700
     26 H61          1.2870     1.2350    -4.5190 hc         1 MN8       0.026700
     27 H62          1.4350     2.1520    -3.0140 hc         1 MN8       0.026700
     28 H63          2.8430     1.3170    -3.6830 hc         1 MN8       0.026700
     29 H10         -4.3700    -0.0060    -3.7730 h1         1 MN8       0.024700
     30 HN1         -4.2390    -2.0110    -2.3510 hn         1 MN8       0.364800
     31 H121        -6.0370    -1.4870    -3.7410 h1         1 MN8       0.036700
     32 H122        -6.6280    -2.1640    -2.1870 h1         1 MN8       0.036700
     33 H151        -4.5030     2.1070    -2.6310 hc         1 MN8       0.079200
     34 H152        -4.5270     1.2810    -1.0330 hc         1 MN8       0.079200
     35 H16         -6.6080     3.2000    -1.7280 ha         1 MN8       0.131000
     36 H17         -9.0660     3.0670    -1.8440 ha         1 MN8       0.119000
     37 H18        -10.1590     0.9110    -2.3390 ha         1 MN8       0.118000
     38 H19         -8.7940    -1.1010    -2.7150 ha         1 MN8       0.120000
@<TRIPOS>BOND
     1     1     2 1
     2     1     3 1
     3     1     4 1
     4     4     5 2
     5     4    11 1
     6     5     6 1
     7     5     9 1
     8     6     7 1
     9     6     8 1
    10     6    22 1
    11     7    23 1
    12     7    24 1
    13     7    25 1
    14     8    26 1
    15     8    27 1
    16     8    28 1
    17     9    10 1
    18    10    11 2
    19    10    12 1
    20    12    13 1
    21    12    17 1
    22    12    29 1
    23    13    14 1
    24    13    30 1
    25    14    15 1
    26    14    31 1
    27    14    32 1
    28    15    16 ar
    29    15    21 ar
    30    16    17 1
    31    16    18 ar
    32    17    33 1
    33    17    34 1
    34    18    19 ar
    35    18    35 1
    36    19    20 ar
    37    19    36 1
    38    20    21 ar
    39    20    37 1
    40    21    38 1
@<TRIPOS>SUBSTRUCTURE
     1 MN8         1 TEMP              0 ****  ****    0 ROOT
