@<TRIPOS>MOLECULE
MN9
   30    29     1     0     0
SMALL
bcc


@<TRIPOS>ATOM
      1 O1           0.0000     0.0000     0.0000 o          1 MN9      -0.547100
      2 C2           1.9610     0.0000     1.3050 c3         1 MN9      -0.136300
      3 N2           1.0110    -0.0910     2.4170 ns         1 MN9      -0.183900
      4 C7           0.4300     1.0240     2.9000 c          1 MN9       0.578100
      5 C            1.2080     0.0000     0.0000 c          1 MN9       0.644900
      6 O7           0.6930     2.1050     2.4150 o          1 MN9      -0.643100
      7 C8          -0.5460     0.9300     4.0440 c3         1 MN9      -0.064100
      8 C3           2.9110    -1.1970     1.3460 c3         1 MN9       0.186100
      9 O3           3.8590    -1.0900     0.2820 oh         1 MN9      -0.563800
     10 C4           3.6490    -1.2180     2.6860 c3         1 MN9       0.173100
     11 O4           4.3550     0.0120     2.8600 oh         1 MN9      -0.562800
     12 C5           4.6410    -2.3830     2.7050 c3         1 MN9       0.156100
     13 C6           5.3790    -2.4030     4.0450 c3         1 MN9       0.192400
     14 O6           6.3850    -3.4160     4.0200 oh         1 MN9      -0.594800
     15 O5           3.9340    -3.6120     2.5310 oh         1 MN9      -0.596800
     16 H81C        -1.0470     1.8820     4.1710 hc         1 MN9       0.022367
     17 H82C        -1.2790     0.1620     3.8310 hc         1 MN9       0.022367
     18 H83C        -0.0140     0.6790     4.9540 hc         1 MN9       0.022367
     19 H2           0.7680    -0.9850     2.7940 hn         1 MN9       0.175500
     20 HA           2.5320     0.9170     1.3930 h1         1 MN9       0.102700
     21 H3           2.3430    -2.1130     1.2320 h1         1 MN9       0.021700
     22 HB           3.6430    -1.7100    -0.3950 ho         1 MN9       0.389000
     23 H4           2.9330    -1.3400     3.4900 h1         1 MN9       0.011700
     24 HC           4.2490     0.3140     3.7470 ho         1 MN9       0.390000
     25 H5           5.3570    -2.2610     1.9000 h1         1 MN9       0.038700
     26 HD           4.5020    -4.2480     2.1280 ho         1 MN9       0.407000
     27 H61C         5.8420    -1.4390     4.2180 h1         1 MN9      -0.004300
     28 H62C         4.6750    -2.6140     4.8410 h1         1 MN9      -0.004300
     29 H6           6.8760    -3.3930     4.8240 ho         1 MN9       0.395000
     30 H            1.7490     0.0370    -0.9380 h4         1 MN9      -0.029800
@<TRIPOS>BOND
     1     1     5 2   
     2     2     3 1   
     3     2     5 1   
     4     2     8 1   
     5     2    20 1   
     6     3     4 1   
     7     3    19 1   
     8     4     6 2   
     9     4     7 1   
    10     5    30 1   
    11     7    16 1   
    12     7    17 1   
    13     7    18 1   
    14     8     9 1   
    15     8    10 1   
    16     8    21 1   
    17     9    22 1   
    18    10    11 1   
    19    10    12 1   
    20    10    23 1   
    21    11    24 1   
    22    12    13 1   
    23    12    15 1   
    24    12    25 1   
    25    13    14 1   
    26    13    27 1   
    27    13    28 1   
    28    14    29 1   
    29    15    26 1   
@<TRIPOS>SUBSTRUCTURE
     1 MN9         1 TEMP              0 ****  ****    0 ROOT
