@<TRIPOS>MOLECULE
MNA
   42    42     1     0     0
SMALL
bcc


@<TRIPOS>ATOM
      1 C1           1.5060     0.0000     0.0000 c          1 MNA       0.931600
      2 C2           0.0000     0.0000     0.0000 c3         1 MNA       0.249600
      3 C3          -0.5080     0.0000     1.4430 c3         1 MNA      -0.064400
      4 C4           0.0320     1.2410     2.1620 c3         1 MNA       0.167100
      5 C5          -0.3320     2.4810     1.3420 c3         1 MNA      -0.032300
      6 C6           0.1630     2.2930    -0.0930 c3         1 MNA       0.119100
      7 C7          -0.1670     3.5420    -0.9130 c3         1 MNA       0.189100
      8 C8           0.3270     3.3540    -2.3500 c3         1 MNA       0.162100
      9 C9          -0.0030     4.6030    -3.1700 c3         1 MNA       0.172400
     10 C11          0.3110     5.5900     3.4800 c3         1 MNA      -0.072100
     11 N5           0.3030     3.6620     1.9300 ns         1 MNA      -0.176900
     12 O1A          2.1100     0.6230    -0.8410 o          1 MNA      -0.869800
     13 O1B          2.1780    -0.6900     0.9350 o          1 MNA      -0.869800
     14 O2          -0.4740    -1.1710    -0.6700 os         1 MNA      -0.389600
     15 O4          -0.5520     1.3330     3.4640 oh         1 MNA      -0.587800
     16 O6          -0.4730     1.1610    -0.6790 os         1 MNA      -0.389600
     17 O7          -1.5820     3.7460    -0.9210 oh         1 MNA      -0.570800
     18 O8           1.7410     3.1500    -2.3430 oh         1 MNA      -0.557800
     19 O9           0.4580     4.4270    -4.5110 oh         1 MNA      -0.595800
     20 O10         -1.4490     4.0390     3.2350 o          1 MNA      -0.642100
     21 H31         -1.5910     0.0240     1.4450 hc         1 MNA       0.033700
     22 H32         -0.1590    -0.8920     1.9490 hc         1 MNA       0.033700
     23 H4           1.1090     1.1680     2.2470 h1         1 MNA       0.045700
     24 H5          -1.4080     2.6070     1.3380 h1         1 MNA       0.080700
     25 H6           1.2350     2.1370    -0.0840 h1         1 MNA       0.116700
     26 H7           0.3210     4.4030    -0.4730 h1         1 MNA      -0.003300
     27 H8          -0.1600     2.4920    -2.7900 h1         1 MNA       0.045700
     28 H91          0.4850     5.4640    -2.7300 h1         1 MNA      -0.011800
     29 H92         -1.0750     4.7590    -3.1740 h1         1 MNA      -0.011800
     30 H111         1.3290     5.3490     3.7640 hc         1 MNA       0.013367
     31 H112         0.3200     6.3950     2.7540 hc         1 MNA       0.013367
     32 H113        -0.2440     5.9000     4.3560 hc         1 MNA       0.013367
     33 H121        -0.4840    -0.2300    -2.5030 h1         1 MNA      -0.001967
     34 H122         1.0560    -0.9660    -2.0360 h1         1 MNA      -0.001967
     35 H123        -0.2930    -1.9880    -2.5520 h1         1 MNA      -0.001967
     36 HN5          1.2320     3.9180     1.6600 hn         1 MNA       0.170500
     37 HO4         -0.1010     0.7500     4.0520 ho         1 MNA       0.380000
     38 HO7         -1.7680     4.6570    -0.7620 ho         1 MNA       0.370000
     39 HO8          2.0440     3.0180    -3.2260 ho         1 MNA       0.396000
     40 HO9          0.1230     5.1230    -5.0520 ho         1 MNA       0.381000
     41 C10         -0.3430     4.3750     2.8740 c          1 MNA       0.561100
     42 C12         -0.0210    -1.0830    -2.0220 c3         1 MNA       0.206700
@<TRIPOS>BOND
     1     1     2 1   
     2     1    12 1   
     3     1    13 1   
     4     2     3 1   
     5     2    14 1   
     6     2    16 1   
     7     3     4 1   
     8     3    21 1   
     9     3    22 1   
    10     4     5 1   
    11     4    15 1   
    12     4    23 1   
    13     5     6 1   
    14     5    11 1   
    15     5    24 1   
    16     6     7 1   
    17     6    16 1   
    18     6    25 1   
    19     7     8 1   
    20     7    17 1   
    21     7    26 1   
    22     8     9 1   
    23     8    18 1   
    24     8    27 1   
    25     9    19 1   
    26     9    28 1   
    27     9    29 1   
    28    10    30 1   
    29    10    31 1   
    30    10    32 1   
    31    10    41 1   
    32    11    36 1   
    33    11    41 1   
    34    14    42 1   
    35    15    37 1   
    36    17    38 1   
    37    18    39 1   
    38    19    40 1   
    39    20    41 2   
    40    33    42 1   
    41    34    42 1   
    42    35    42 1   
@<TRIPOS>SUBSTRUCTURE
     1 MNA         1 TEMP              0 ****  ****    0 ROOT
