@<TRIPOS>MOLECULE
MNB
   17    17     1     0     0
SMALL
bcc


@<TRIPOS>ATOM
      1 C6           0.0000     0.0000     0.0000 ca         1 MNB      -0.038000
      2 C1           1.3830     0.0000     0.0000 ca         1 MNB      -0.001600
      3 C2           2.0810     0.0000     1.2340 ca         1 MNB      -0.404200
      4 C3           1.3610     0.0100     2.4410 ca         1 MNB      -0.036000
      5 C4          -0.0030     0.0100     2.4240 ca         1 MNB      -0.113000
      6 C5          -0.6960     0.0040     1.2110 ca         1 MNB       0.062900
      7 S5          -2.4580     0.0040     1.2120 sh         1 MNB      -0.383700
      8 C10          2.1280    -0.0040    -1.2780 c          1 MNB       0.956200
      9 O12          1.6550    -0.6960    -2.3310 o          1 MNB      -0.849800
     10 O11          3.1670     0.6160    -1.3770 o          1 MNB      -0.849800
     11 N7           3.4210    -0.0000     1.2500 no         1 MNB       0.955200
     12 O9           4.1170     0.7970     2.1890 o          1 MNB      -0.429500
     13 O8           4.0390    -0.6880     0.4580 o          1 MNB      -0.429500
     14 HC6         -0.5430    -0.0020    -0.9380 ha         1 MNB       0.148000
     15 HC3          1.8900     0.0120     3.3860 ha         1 MNB       0.120000
     16 HC4         -0.5530     0.0150     3.3570 ha         1 MNB       0.112000
     17 HS5         -2.9010    -1.2480     1.2070 hs         1 MNB       0.181800
@<TRIPOS>BOND
     1     1     2 ar  
     2     1     6 ar  
     3     1    14 1   
     4     2     3 ar  
     5     2     8 1   
     6     3     4 ar  
     7     3    11 1   
     8     4     5 ar  
     9     4    15 1   
    10     5     6 ar  
    11     5    16 1   
    12     6     7 1   
    13     7    17 1   
    14     8     9 1   
    15     8    10 1   
    16    11    12 1   
    17    11    13 1   
@<TRIPOS>SUBSTRUCTURE
     1 MNB         1 TEMP              0 ****  ****    0 ROOT
