@<TRIPOS>MOLECULE
MNC
    6     5     1     0     0
SMALL
bcc


@<TRIPOS>ATOM
      1 C           2.6020    0.0070    0.1730 c1        1 MNC      0.434800
      2 N           1.4280   -0.0130    0.0410 n1        1 MNC     -0.851300
      3 C1          0.0420   -0.0370   -0.1140 c3        1 MNC      0.259400
      4 H11        -0.3510   -1.0720    0.0810 h1        1 MNC      0.052700
      5 H12        -0.2340    0.2650   -1.1620 h1        1 MNC      0.052700
      6 H13        -0.4400    0.6770    0.6090 h1        1 MNC      0.052700
@<TRIPOS>BOND
     1    1    2 3   
     2    2    3 1   
     3    3    4 1   
     4    3    5 1   
     5    3    6 1   
@<TRIPOS>SUBSTRUCTURE
     1 MNC         1 TEMP              0 ****  ****    0 ROOT
