@<TRIPOS>MOLECULE
molecule
   45    46     1     0     0
SMALL
bcc


@<TRIPOS>ATOM
      1 O1B          0.0000     0.0000     0.0000 o          1 MNI      -0.595100
      2 C1B          1.2280     0.0000     0.0000 c          1 MNI       0.684700
      3 C2B          1.9540     0.0000     1.2970 ca         1 MNI      -0.189600
      4 C3B          1.3310     0.5300     2.4070 ca         1 MNI      -0.055500
      5 C4B          2.0120     0.5320     3.6250 ca         1 MNI      -0.197000
      6 C5B          3.3000     0.0040     3.7040 ca         1 MNI       0.212600
      7 N5B          3.9890     0.0050     4.9350 nh         1 MNI      -0.753000
      8 C8B          3.7370     1.0410     5.9160 c3         1 MNI       0.234100
      9 C9B          4.9480    -1.0380     5.2410 c3         1 MNI       0.234100
     10 C6B          3.9070    -0.5270     2.5660 ca         1 MNI      -0.197000
     11 C7B          3.2270    -0.5290     1.3490 ca         1 MNI      -0.055500
     12 N1B          2.0140     0.0220    -1.1530 ns         1 MNI      -0.592900
     13 C1A          1.4650     0.0480    -2.4690 c3         1 MNI       0.126000
     14 C2A          1.2630    -1.3750    -2.9800 c3         1 MNI       0.133500
     15 N5A          0.7140    -1.3880    -4.3460 n7         1 MNI      -0.782200
     16 C5M          1.7750    -1.8430    -5.2460 c3         1 MNI       0.154500
     17 C6A          1.2020    -2.4460    -6.5180 c3         1 MNI       0.146400
     18 O6A          0.5120    -1.4330    -7.2270 oh         1 MNI      -0.590800
     19 C4A          2.5310    -2.8510    -4.3960 c3         1 MNI       0.072100
     20 O4A          3.8360    -3.0600    -4.9070 oh         1 MNI      -0.597800
     21 C3A          2.5800    -2.1530    -3.0450 c3         1 MNI       0.105100
     22 O3A          2.6450    -3.1080    -1.9960 oh         1 MNI      -0.597800
     23 H3B          0.3300     0.9380     2.3350 ha         1 MNI       0.143500
     24 H4B          1.5400     0.9440     4.5090 ha         1 MNI       0.136000
     25 H8B1         3.5770     1.9860     5.4110 h1         1 MNI       0.032867
     26 H8B2         2.8550     0.7860     6.4920 h1         1 MNI       0.032867
     27 H8B3         4.5890     1.1260     6.5790 h1         1 MNI       0.032867
     28 H9B1         5.0610    -1.1210     6.3150 h1         1 MNI       0.032867
     29 H9B2         4.5950    -1.9810     4.8410 h1         1 MNI       0.032867
     30 H9B3         5.9030    -0.7920     4.7940 h1         1 MNI       0.032867
     31 H6B          4.9080    -0.9370     2.6270 ha         1 MNI       0.136000
     32 H7B          3.6900    -0.9380     0.4590 ha         1 MNI       0.143500
     33 HN1B         3.0100     0.0220    -1.0510 hn         1 MNI       0.312500
     34 H1A1         2.1420     0.5740    -3.1300 h1         1 MNI       0.066200
     35 H1A2         0.5110     0.5610    -2.4500 h1         1 MNI       0.066200
     36 H2A          0.5790    -1.8970    -2.3220 h1         1 MNI       0.081700
     37 HN5A        -0.0570    -2.0250    -4.3900 hn         1 MNI       0.361800
     38 H5M          2.4260    -1.0130    -5.4890 h1         1 MNI       0.095700
     39 H6A1         0.5160    -3.2460    -6.2660 h1         1 MNI       0.022700
     40 H6A2         2.0060    -2.8360    -7.1310 h1         1 MNI       0.022700
     41 HO6A         0.2820    -1.7500    -8.0850 ho         1 MNI       0.401000
     42 H4A          1.9830    -3.7820    -4.3270 h1         1 MNI       0.053700
     43 HO4A         4.0290    -3.9830    -4.9080 ho         1 MNI       0.405000
     44 H3A          3.4220    -1.4740    -3.0010 h1         1 MNI       0.053700
     45 HO3A         3.5130    -3.4740    -1.9580 ho         1 MNI       0.403000
@<TRIPOS>BOND
     1     1     2 2
     2     2    12 1
     3     2     3 1
     4     3     4 ar
     5     3    11 ar
     6     4     5 ar
     7     4    23 1
     8     5     6 ar
     9     5    24 1
    10     6    10 ar
    11     6     7 1
    12     7     8 1
    13     7     9 1
    14     8    25 1
    15     8    26 1
    16     8    27 1
    17     9    28 1
    18     9    29 1
    19     9    30 1
    20    10    11 ar
    21    10    31 1
    22    11    32 1
    23    12    13 1
    24    12    33 1
    25    13    14 1
    26    13    34 1
    27    13    35 1
    28    14    15 1
    29    14    21 1
    30    14    36 1
    31    15    16 1
    32    15    37 1
    33    16    17 1
    34    16    19 1
    35    16    38 1
    36    17    18 1
    37    17    39 1
    38    17    40 1
    39    18    41 1
    40    19    20 1
    41    19    21 1
    42    19    42 1
    43    20    43 1
    44    21    22 1
    45    21    44 1
    46    22    45 1
@<TRIPOS>SUBSTRUCTURE
     1 MNI         1 TEMP              0 ****  ****    0 ROOT
