@<TRIPOS>MOLECULE
molecule
   36    37     1     0     0
SMALL
bcc


@<TRIPOS>ATOM
      1 C1           0.0000     0.0000     0.0000 cc         1 MNK       0.019900
      2 O1          -0.5240    -0.0200    -1.2500 oh         1 MNK      -0.509100
      3 C2           1.3650     0.0000     0.0000 c          1 MNK       0.507500
      4 O2           1.9000    -0.0000    -1.1010 o          1 MNK      -0.569100
      5 C3           2.2260     0.0000     1.0920 cc         1 MNK       0.037900
      6 O3           3.5610    -0.0290     0.8510 oh         1 MNK      -0.495100
      7 C4           1.8110     0.0280     2.3880 cd         1 MNK      -0.108000
      8 C5           0.5610     0.0630     2.8740 cd         1 MNK      -0.077200
      9 C6          -0.6940     0.0650     2.3310 cd         1 MNK      -0.035200
     10 C7          -0.9590     0.0210     0.9770 cd         1 MNK      -0.033200
     11 C8           0.5340     0.1070     4.3800 c3         1 MNK      -0.074900
     12 C9          -1.8090     0.1330     3.3590 c3         1 MNK      -0.041200
     13 C10         -3.1360    -0.3310     2.7750 c3         1 MNK      -0.033500
     14 C11         -3.3800     0.4600     1.4830 c3         1 MNK      -0.076400
     15 C12         -2.3810    -0.0180     0.4430 c3         1 MNK      -0.040200
     16 C13         -4.2480    -0.0640     3.7560 c2         1 MNK      -0.126400
     17 C14         -4.9700    -1.0580     4.2130 c2         1 MNK      -0.221000
     18 C15         -4.5300     1.3430     4.2110 c3         1 MNK      -0.055900
     19 H4           2.6000     0.0220     3.1310 ha         1 MNK       0.139000
     20 H8          -0.1700     0.8630     4.7060 hc         1 MNK       0.048367
     21 H8A          0.2300    -0.8590     4.7640 hc         1 MNK       0.048367
     22 H8B          1.5220     0.3500     4.7520 hc         1 MNK       0.048367
     23 H9          -1.5540    -0.5010     4.1990 hc         1 MNK       0.063700
     24 H9A         -1.9130     1.1560     3.7000 hc         1 MNK       0.063700
     25 H10         -3.0840    -1.3890     2.5500 hc         1 MNK       0.060700
     26 H11         -4.3880     0.2790     1.1300 hc         1 MNK       0.052700
     27 H11A        -3.2350     1.5170     1.6690 hc         1 MNK       0.052700
     28 H12         -2.4480     0.6200    -0.4290 hc         1 MNK       0.068700
     29 H12A        -2.6240    -1.0360     0.1630 hc         1 MNK       0.068700
     30 H14         -5.7690    -0.8670     4.9190 ha         1 MNK       0.115000
     31 H14A        -4.7660    -2.0700     3.8860 ha         1 MNK       0.115000
     32 H15         -3.9590     2.0400     3.6090 hc         1 MNK       0.043367
     33 H15A        -4.2470     1.4500     5.2520 hc         1 MNK       0.043367
     34 H15B        -5.5870     1.5540     4.1010 hc         1 MNK       0.043367
     35 H17         -0.2380    -0.7990    -1.6990 ho         1 MNK       0.433000
     36 H18          3.8740    -0.9160     0.9240 ho         1 MNK       0.424000
@<TRIPOS>BOND
     1     1    10 2
     2     2     1 1
     3     2    35 1
     4     3     1 1
     5     3     5 1
     6     4     3 2
     7     5     7 2
     8     6     5 1
     9     6    36 1
    10     7     8 1
    11     7    19 1
    12     8    11 1
    13     9     8 2
    14     9    12 1
    15    10     9 1
    16    11    20 1
    17    11    21 1
    18    11    22 1
    19    12    23 1
    20    12    24 1
    21    13    12 1
    22    13    25 1
    23    14    13 1
    24    14    26 1
    25    14    27 1
    26    15    10 1
    27    15    14 1
    28    15    28 1
    29    15    29 1
    30    16    13 1
    31    16    17 2
    32    17    30 1
    33    17    31 1
    34    18    16 1
    35    18    32 1
    36    18    33 1
    37    18    34 1
@<TRIPOS>SUBSTRUCTURE
     1 MNK         1 TEMP              0 ****  ****    0 ROOT
