@<TRIPOS>MOLECULE
MNK
   36    37     1     0     0
SMALL
bcc


@<TRIPOS>ATOM
      1 C1         -0.0650   -0.2360    0.0210 cc        1 MNK     -0.005100
      2 O1         -0.5950   -0.2560   -1.2620 oh        1 MNK     -0.508100
      3 C2          1.3560   -0.5730    0.0790 c         1 MNK      0.528500
      4 O2          1.8820   -1.2100   -0.8610 o         1 MNK     -0.589100
      5 C3          2.1950   -0.0450    1.1530 cc        1 MNK      0.017900
      6 O3          3.5420    0.0760    0.8620 oh        1 MNK     -0.503100
      7 C4          1.8280    0.3580    2.3950 cd        1 MNK     -0.108000
      8 C5          0.5460    0.2820    3.0180 cd        1 MNK     -0.065200
      9 C6         -0.6810    0.1390    2.4210 cd        1 MNK     -0.049200
     10 C7         -0.9500    0.1200    1.0080 cd        1 MNK     -0.025200
     11 C8          0.6100    0.3810    4.5100 c3        1 MNK     -0.064900
     12 C9         -1.8490    0.0220    3.3590 c3        1 MNK     -0.040200
     13 C10        -3.1850   -0.2440    2.6870 c3        1 MNK     -0.029500
     14 C11        -3.3560    0.7590    1.5590 c3        1 MNK     -0.071400
     15 C12        -2.3150    0.4880    0.5010 c3        1 MNK     -0.043200
     16 C13        -4.3190   -0.1900    3.6640 c2        1 MNK     -0.113400
     17 C14        -5.1660   -1.2170    3.7930 c2        1 MNK     -0.220000
     18 C15        -4.4650    1.0430    4.4780 c3        1 MNK     -0.061900
     19 H4          2.6510    0.7400    3.0360 ha        1 MNK      0.153000
     20 H8          1.6530    0.5550    4.8720 hc        1 MNK      0.048700
     21 H8A        -0.0250    1.2260    4.8760 hc        1 MNK      0.048700
     22 H8B         0.2410   -0.5670    4.9770 hc        1 MNK      0.048700
     23 H9         -1.6470   -0.8100    4.0880 hc        1 MNK      0.057700
     24 H9A        -1.9230    0.9770    3.9520 hc        1 MNK      0.057700
     25 H10        -3.1530   -1.2780    2.2330 hc        1 MNK      0.059700
     26 H11        -4.3790    0.6730    1.1110 hc        1 MNK      0.049200
     27 H11A       -3.2480    1.8020    1.9550 hc        1 MNK      0.049200
     28 H12        -2.2030    1.3930   -0.1590 hc        1 MNK      0.068200
     29 H12A       -2.6750   -0.3470   -0.1660 hc        1 MNK      0.068200
     30 H14        -5.0700   -2.1400    3.2080 ha        1 MNK      0.114000
     31 H14A       -6.0110   -1.1950    4.4940 ha        1 MNK      0.114000
     32 H15        -4.3100    1.9540    3.8490 hc        1 MNK      0.042367
     33 H15A       -5.4810    1.1030    4.9400 hc        1 MNK      0.042367
     34 H15B       -3.7070    1.0510    5.3010 hc        1 MNK      0.042367
     35 H17         0.0270   -0.7220   -1.8460 ho        1 MNK      0.442000
     36 H18         3.7200   -0.4060    0.0350 ho        1 MNK      0.443000
@<TRIPOS>BOND
     1    1    2 1   
     2    1    3 1   
     3    1   10 2   
     4    2   35 1   
     5    3    4 2   
     6    3    5 1   
     7    5    6 1   
     8    5    7 2   
     9    6   36 1   
    10    7    8 1   
    11    7   19 1   
    12    8    9 2   
    13    8   11 1   
    14    9   10 1   
    15    9   12 1   
    16   10   15 1   
    17   11   20 1   
    18   11   21 1   
    19   11   22 1   
    20   12   13 1   
    21   12   23 1   
    22   12   24 1   
    23   13   14 1   
    24   13   16 1   
    25   13   25 1   
    26   14   15 1   
    27   14   26 1   
    28   14   27 1   
    29   15   28 1   
    30   15   29 1   
    31   16   17 2   
    32   16   18 1   
    33   17   30 1   
    34   17   31 1   
    35   18   32 1   
    36   18   33 1   
    37   18   34 1   
@<TRIPOS>SUBSTRUCTURE
     1 MNK         1 TEMP              0 ****  ****    0 ROOT
