@<TRIPOS>MOLECULE
MNM
   24    24     1     0     0
SMALL
bcc


@<TRIPOS>ATOM
      1 C1           0.0000     0.0000     0.0000 c3         1 MNM       0.163100
      2 C2           1.5300     0.0000     0.0000 c3         1 MNM       0.323300
      3 C3          -0.5050    -1.2690     0.6930 c3         1 MNM       0.183100
      4 O4          -0.4780     0.0320    -1.3470 oh         1 MNM      -0.582800
      5 O5           2.0040    -1.1670    -0.6750 oh         1 MNM      -0.600800
      6 N6           2.0260     0.0000     1.3800 n7         1 MNM      -0.585200
      7 O7          -1.9300    -1.2260     0.7900 oh         1 MNM      -0.588800
      8 C8           0.1050    -1.3450     2.0970 c3         1 MNM      -0.065700
      9 C9          -0.3000    -2.6630     2.7590 c3         1 MNM       0.227400
     10 C10          1.6290    -1.2750     1.9860 c3         1 MNM       0.139800
     11 O11          0.1750    -2.6840     4.1070 oh         1 MNM      -0.594800
     12 HC1         -0.3590     0.8700     0.5360 h1         1 MNM       0.027700
     13 HC2          1.8880     0.8860    -0.5090 h2         1 MNM       0.007700
     14 HC3         -0.2020    -2.1380     0.1210 h1         1 MNM       0.025700
     15 HO4         -0.8770     0.8680    -1.5200 ho         1 MNM       0.391000
     16 HO5          2.6170    -0.9150    -1.3450 ho         1 MNM       0.394000
     17 HN6          3.0240     0.0720     1.3760 hn         1 MNM       0.258800
     18 HO7         -2.3070    -1.7880     0.1330 ho         1 MNM       0.395000
     19 HC8         -0.2510    -0.5120     2.6900 hc         1 MNM       0.055700
     20 HC91         0.1330    -3.4910     2.2100 h1         1 MNM      -0.008300
     21 HC92        -1.3800    -2.7520     2.7550 h1         1 MNM      -0.008300
     22 H1           1.9820    -2.0920     1.3680 h1         1 MNM       0.027700
     23 H10          2.0640    -1.3520     2.9760 h1         1 MNM       0.027700
     24 H11         -0.2340    -3.3950     4.5730 ho         1 MNM       0.389000
@<TRIPOS>BOND
     1     1     2 1   
     2     1     3 1   
     3     1     4 1   
     4     1    12 1   
     5     2     5 1   
     6     2     6 1   
     7     2    13 1   
     8     3     7 1   
     9     3     8 1   
    10     3    14 1   
    11     4    15 1   
    12     5    16 1   
    13     6    10 1   
    14     6    17 1   
    15     7    18 1   
    16     8     9 1   
    17     8    10 1   
    18     8    19 1   
    19     9    11 1   
    20     9    20 1   
    21     9    21 1   
    22    10    22 1   
    23    10    23 1   
    24    11    24 1   
@<TRIPOS>SUBSTRUCTURE
     1 MNM         1 TEMP              0 ****  ****    0 ROOT
