@<TRIPOS>MOLECULE
MNN
   17    17     1     0     0
SMALL
bcc


@<TRIPOS>ATOM
      1 C1           0.0000     0.0000     0.0000 ca         1 MNN      -0.067300
      2 C2           1.3830     0.0000     0.0000 ca         1 MNN      -0.107500
      3 C3           2.0740     0.0000     1.1970 ca         1 MNN      -0.131500
      4 C4           1.3830     0.0000     2.3940 ca         1 MNN      -0.079000
      5 C5           0.0010     0.0010     2.3950 ca         1 MNN      -0.131500
      6 C6          -0.6910     0.0060     1.1970 ca         1 MNN      -0.107500
      7 C7          -0.7530    -0.0000    -1.3040 c3         1 MNN       0.386500
      8 C8          -1.2070    -1.3670    -1.6090 c1         1 MNN       0.143700
      9 N9          -1.5410    -2.4240    -1.8560 n1         1 MNN      -0.356800
     10 O10         -1.8850     0.8650    -1.2010 oh         1 MNN      -0.581800
     11 H2           2.3300    -0.2260    -0.4750 ha         1 MNN       0.136500
     12 H3           3.1050    -0.1100     0.8830 ha         1 MNN       0.109500
     13 H4           1.7340    -0.1140     3.4130 ha         1 MNN       0.105000
     14 H5          -0.3930     0.3710     3.3330 ha         1 MNN       0.109500
     15 H6          -1.6610     0.4460     1.3900 ha         1 MNN       0.136500
     16 H7          -0.1020     0.3490    -2.0970 h1         1 MNN       0.032700
     17 H10         -2.6070     0.4700    -1.6600 ho         1 MNN       0.405000
@<TRIPOS>BOND
     1     1     2 ar  
     2     1     6 ar  
     3     1     7 1   
     4     2     3 ar  
     5     2    11 1   
     6     3     4 ar  
     7     3    12 1   
     8     4     5 ar  
     9     4    13 1   
    10     5     6 ar  
    11     5    14 1   
    12     6    15 1   
    13     7     8 1   
    14     7    10 1   
    15     7    16 1   
    16     8     9 3   
    17    10    17 1   
@<TRIPOS>SUBSTRUCTURE
     1 MNN         1 TEMP              0 ****  ****    0 ROOT
