@<TRIPOS>MOLECULE
MNO
   70    72     1     0     0
SMALL
bcc


@<TRIPOS>ATOM
      1 C1           0.0000     0.0000     0.0000 ca         1 MNO      -0.010000
      2 C2           1.3840     0.0000     0.0000 ca         1 MNO      -0.163600
      3 C3           2.0970     0.0000     1.2130 ca         1 MNO      -0.087000
      4 C4           1.4450    -0.0070     2.4030 ca         1 MNO      -0.094000
      5 C5           0.0390    -0.0140     2.4360 ca         1 MNO      -0.020000
      6 C6          -0.6920    -0.0130     1.2200 ca         1 MNO      -0.055000
      7 C7          -2.0970    -0.0200     1.2590 ca         1 MNO      -0.076000
      8 C8          -2.7380    -0.0280     2.4610 ca         1 MNO      -0.106000
      9 C9          -2.0200    -0.0280     3.6540 ca         1 MNO      -0.090000
     10 C10         -0.6580    -0.0210     3.6550 ca         1 MNO      -0.095000
     11 C11          2.1190     0.0090    -1.2810 c          1 MNO       0.596700
     12 O1           1.5070     0.0090    -2.3320 o          1 MNO      -0.668100
     13 N1           3.4670     0.0140    -1.2860 ns         1 MNO      -0.175900
     14 C12          4.1950     0.0220    -2.5570 c3         1 MNO      -0.055300
     15 C13          5.5160    -0.6820    -2.3830 c          1 MNO       0.612100
     16 O2           6.0820    -0.6530    -1.3120 o          1 MNO      -0.636100
     17 C14          4.4410     1.4670    -2.9940 c3         1 MNO      -0.050700
     18 C16          5.3750     2.1510    -1.9940 c3         1 MNO      -0.023600
     19 C17          5.0850     1.4770    -4.3830 c3         1 MNO      -0.023600
     20 N2           6.0660    -1.3440    -3.4190 n          1 MNO      -0.129800
     21 C18          7.3950    -1.9740    -3.4230 c3         1 MNO      -0.035300
     22 C19          8.4650    -0.9380    -3.2000 c          1 MNO       0.585100
     23 O3           8.1600     0.2240    -3.0400 o          1 MNO      -0.630100
     24 C20          7.5830    -2.6340    -4.8050 c3         1 MNO      -0.036400
     25 C21          6.1270    -2.8180    -5.3080 c3         1 MNO      -0.028400
     26 C22          5.4390    -1.5520    -4.7380 c3         1 MNO       0.023000
     27 N3           9.7620    -1.3030    -3.1780 ns         1 MNO      -0.159900
     28 C24         11.9990    -0.9410    -2.2570 c3         1 MNO      -0.102400
     29 C25         11.5570    -1.5020    -0.9310 c          1 MNO       0.638100
     30 N4          12.4480    -2.1210    -0.1310 ns         1 MNO      -0.323300
     31 O5          10.4000    -1.3960    -0.5820 o          1 MNO      -0.594100
     32 C26         10.8030    -0.2970    -2.9620 c3         1 MNO      -0.096300
     33 S1          11.9630    -2.7360     1.3270 s6         1 MNO       0.956600
     34 O4          13.1410    -3.3700     1.8090 o          1 MNO      -0.563300
     35 O7          11.3970    -1.6060     1.9740 o          1 MNO      -0.563300
     36 C15         10.6940    -3.9470     0.8640 c3         1 MNO       0.022700
     37 C27         11.2450     0.2640    -4.2890 c          1 MNO       0.642900
     38 H1          -0.5450    -0.0000    -0.9360 ha         1 MNO       0.129000
     39 H3           3.1800     0.0000     1.1970 ha         1 MNO       0.109000
     40 H4           2.0080    -0.0070     3.3290 ha         1 MNO       0.108000
     41 H7          -2.6670    -0.0200     0.3380 ha         1 MNO       0.108000
     42 H8          -3.8200    -0.0330     2.4890 ha         1 MNO       0.102000
     43 H9          -2.5530    -0.0340     4.5970 ha         1 MNO       0.100000
     44 H10         -0.1150    -0.0220     4.5920 ha         1 MNO       0.107000
     45 HN1          3.9700    -0.0340    -0.4230 hn         1 MNO       0.204500
     46 H12          3.6090    -0.4890    -3.3120 h1         1 MNO       0.064700
     47 H14          3.4980     2.0000    -3.0300 hc         1 MNO       0.041700
     48 H161         6.3310     1.6420    -1.9880 hc         1 MNO       0.016200
     49 H162         5.5180     3.1850    -2.2830 hc         1 MNO       0.016200
     50 H163         4.9370     2.1090    -1.0050 hc         1 MNO       0.016200
     51 H171         4.4640     0.9180    -5.0730 hc         1 MNO       0.016200
     52 H172         5.1810     2.4990    -4.7290 hc         1 MNO       0.016200
     53 H173         6.0660     1.0210    -4.3290 hc         1 MNO       0.016200
     54 H18          7.4420    -2.7300    -2.6490 h1         1 MNO       0.046700
     55 H201         8.0760    -3.5940    -4.7050 hc         1 MNO       0.030700
     56 H202         8.1360    -1.9800    -5.4690 hc         1 MNO       0.030700
     57 H211         5.6860    -3.7160    -4.8930 hc         1 MNO       0.027200
     58 H212         6.0900    -2.8220    -6.3900 hc         1 MNO       0.027200
     59 H221         4.3750    -1.7210    -4.6250 h1         1 MNO       0.035200
     60 H222         5.6270    -0.7010    -5.3810 h1         1 MNO       0.035200
     61 HN3         10.0150    -2.2590    -3.3360 hn         1 MNO       0.167500
     62 H241        12.7680    -0.1960    -2.0960 hc         1 MNO       0.038700
     63 H242        12.3930    -1.7400    -2.8730 hc         1 MNO       0.038700
     64 HN4         13.4070    -2.1870    -0.4080 hn         1 MNO       0.235500
     65 H26         10.4100     0.5030    -2.3450 h1         1 MNO       0.099700
     66 H151         9.7290    -3.4560     0.8130 h1         1 MNO       0.069033
     67 H152        10.6590    -4.7350     1.6060 h1         1 MNO       0.069033
     68 H153        10.9350    -4.3710    -0.1030 h1         1 MNO       0.069033
     69 H27         11.9940     1.0450    -4.3240 h4         1 MNO      -0.034800
     70 O6          10.7420    -0.1360    -5.3110 o          1 MNO      -0.546100
@<TRIPOS>BOND
     1     1     2 ar  
     2     1     6 ar  
     3     1    38 1   
     4     2     3 ar  
     5     2    11 1   
     6     3     4 ar  
     7     3    39 1   
     8     4     5 ar  
     9     4    40 1   
    10     5     6 ar  
    11     5    10 ar  
    12     6     7 ar  
    13     7     8 ar  
    14     7    41 1   
    15     8     9 ar  
    16     8    42 1   
    17     9    10 ar  
    18     9    43 1   
    19    10    44 1   
    20    11    12 2   
    21    11    13 1   
    22    13    14 1   
    23    13    45 1   
    24    14    15 1   
    25    14    17 1   
    26    14    46 1   
    27    15    16 2   
    28    15    20 1   
    29    17    18 1   
    30    17    19 1   
    31    17    47 1   
    32    18    48 1   
    33    18    49 1   
    34    18    50 1   
    35    19    51 1   
    36    19    52 1   
    37    19    53 1   
    38    20    21 1   
    39    20    26 1   
    40    21    22 1   
    41    21    24 1   
    42    21    54 1   
    43    22    23 2   
    44    22    27 1   
    45    24    25 1   
    46    24    55 1   
    47    24    56 1   
    48    25    26 1   
    49    25    57 1   
    50    25    58 1   
    51    26    59 1   
    52    26    60 1   
    53    27    32 1   
    54    27    61 1   
    55    28    29 1   
    56    28    32 1   
    57    28    62 1   
    58    28    63 1   
    59    29    30 1   
    60    29    31 2   
    61    30    33 1   
    62    30    64 1   
    63    32    37 1   
    64    32    65 1   
    65    33    34 2   
    66    33    35 2   
    67    33    36 1   
    68    36    66 1   
    69    36    67 1   
    70    36    68 1   
    71    37    69 1   
    72    37    70 2   
@<TRIPOS>SUBSTRUCTURE
     1 MNO         1 TEMP              0 ****  ****    0 ROOT
