@<TRIPOS>MOLECULE
molecule
   19    19     1     0     0
SMALL
bcc


@<TRIPOS>ATOM
      1 C1           0.0000     0.0000     0.0000 c          1 MNP       0.892600
      2 C2           1.5070     0.0000     0.0000 c3         1 MNP      -0.156100
      3 C1'          2.0090     0.0000     1.4210 ca         1 MNP      -0.027300
      4 C2'          2.2440     1.1930     2.0640 ca         1 MNP      -0.031000
      5 C3'          2.7070     1.1900     3.3920 ca         1 MNP      -0.220200
      6 N3'          2.9360     2.3500     4.0310 no         1 MNP       0.340200
      7 O3'          3.3430     2.3430     5.1790 o          1 MNP      -0.252500
      8 O4'          2.7350     3.4080     3.4640 o          1 MNP      -0.252500
      9 C4'          2.9380    -0.0340     4.0410 ca         1 MNP      -0.077000
     10 C5'          2.7010    -1.2170     3.3770 ca         1 MNP      -0.159000
     11 C6'          2.2380    -1.2010     2.0730 ca         1 MNP      -0.058000
     12 O1          -0.6030     0.0010     1.0470 o          1 MNP      -0.836300
     13 O2          -0.6710     0.0000    -1.1620 o          1 MNP      -0.836300
     14 H21          1.8680     0.8850    -0.5110 hc         1 MNP       0.046200
     15 H22          1.8680    -0.8850    -0.5110 hc         1 MNP       0.046200
     16 H2'          2.1590     2.1260     1.5220 ha         1 MNP       0.166000
     17 H4'          3.2980    -0.0470     5.0630 ha         1 MNP       0.147000
     18 H5'          2.8770    -2.1620     3.8760 ha         1 MNP       0.126000
     19 H6'          2.0540    -2.1360     1.5570 ha         1 MNP       0.140000
@<TRIPOS>BOND
     1     1     2 1
     2     1    12 1
     3     1    13 1
     4     2     3 1
     5     2    14 1
     6     2    15 1
     7     3     4 ar
     8     3    11 ar
     9     4     5 ar
    10     4    16 1
    11     5     6 1
    12     5     9 ar
    13     6     7 1
    14     6     8 1
    15     9    10 ar
    16     9    17 1
    17    10    11 ar
    18    10    18 1
    19    11    19 1
@<TRIPOS>SUBSTRUCTURE
     1 MNP         1 TEMP              0 ****  ****    0 ROOT
