@<TRIPOS>MOLECULE
molecule
   32    33     1     0     0
SMALL
bcc


@<TRIPOS>ATOM
      1 C1           0.0000     0.0000     0.0000 ca         1 MNS      -0.339500
      2 C2           1.3610     0.0000     0.0000 ca         1 MNS       0.033000
      3 C3           2.0770     0.0000     1.1960 ca         1 MNS      -0.211000
      4 C4           1.4360    -0.0060     2.3950 ca         1 MNS       0.031000
      5 C4A          0.0330    -0.0120     2.4340 ca         1 MNS      -0.033000
      6 C5          -0.6650    -0.0290     3.6600 ca         1 MNS       0.142600
      7 C6          -2.0440    -0.0330     3.6530 ca         1 MNS      -0.182000
      8 C7          -2.7490    -0.0270     2.4540 ca         1 MNS      -0.031000
      9 C8          -2.1000    -0.0160     1.2580 ca         1 MNS      -0.222000
     10 C8A         -0.6950    -0.0120     1.2210 ca         1 MNS       0.045000
     11 N            0.0310    -0.0350     4.8670 nh         1 MNS      -0.575000
     12 CM1         -0.3700     1.1760     5.5930 c3         1 MNS       0.125600
     13 CM2         -0.4740    -1.1770     5.6400 c3         1 MNS       0.125600
     14 S           -0.8840     0.0000    -1.5240 sy         1 MNS       1.245200
     15 O1S         -1.7960     1.0860    -1.4410 o          1 MNS      -0.525800
     16 O2S          0.0950    -0.1740    -2.5390 o          1 MNS      -0.525800
     17 N3S         -1.8150    -1.3680    -1.5570 nz         1 MNS      -0.812500
     18 H2           2.0850     0.1100    -0.7980 ha         1 MNS       0.175000
     19 H3           3.1590    -0.0100     1.1390 ha         1 MNS       0.163000
     20 H4           2.2520    -0.0280     3.1070 ha         1 MNS       0.180000
     21 H6          -2.5840    -0.0420     4.5920 ha         1 MNS       0.160000
     22 H7          -3.8320    -0.0310     2.4730 ha         1 MNS       0.150000
     23 H8          -2.6660    -0.0110     0.3340 ha         1 MNS       0.096000
     24 HM11         0.3090     1.3430     6.4200 h1         1 MNS       0.050367
     25 HM12        -1.3780     1.0530     5.9720 h1         1 MNS       0.050367
     26 HM13        -0.3390     2.0260     4.9220 h1         1 MNS       0.050367
     27 HM21        -1.4390    -0.9280     6.0630 h1         1 MNS       0.050367
     28 HM22         0.2210    -1.4090     6.4370 h1         1 MNS       0.050367
     29 HM23        -0.5760    -2.0370     4.9880 h1         1 MNS       0.050367
     30 HN31        -1.7430    -1.7990    -2.4570 hn         1 MNS       0.493467
     31 HN32        -1.4950    -2.0060    -0.8550 hn         1 MNS       0.493467
     32 H3S3        -2.7690    -1.1270    -1.3780 hn         1 MNS       0.493467
@<TRIPOS>BOND
     1     1     2 ar
     2     1    10 ar
     3     1    14 1
     4     2     3 ar
     5     2    18 1
     6     3     4 ar
     7     3    19 1
     8     4     5 ar
     9     4    20 1
    10     5     6 ar
    11     5    10 ar
    12     6     7 ar
    13     6    11 1
    14     7     8 ar
    15     7    21 1
    16     8     9 ar
    17     8    22 1
    18     9    10 ar
    19     9    23 1
    20    11    12 1
    21    11    13 1
    22    12    24 1
    23    12    25 1
    24    12    26 1
    25    13    27 1
    26    13    28 1
    27    13    29 1
    28    14    15 2
    29    14    16 2
    30    14    17 1
    31    17    30 1
    32    17    31 1
    33    32    17 1
@<TRIPOS>SUBSTRUCTURE
     1 MNS         1 TEMP              0 ****  ****    0 ROOT
