@<TRIPOS>MOLECULE
molecule
   55    58     1     0     0
SMALL
bcc


@<TRIPOS>ATOM
      1 PB           0.0000     0.0000     0.0000 p5         1 MNT       1.190900
      2 O1B          1.4800     0.0000     0.0000 o          1 MNT      -0.803833
      3 O2B         -0.5370     0.0000     1.5190 o          1 MNT      -0.803833
      4 O3B         -0.5360    -1.3140    -0.7570 o          1 MNT      -0.803833
      5 PA           0.0340     1.2490    -2.2630 p5         1 MNT       1.248800
      6 O1A          1.5120     1.2300    -2.2290 o          1 MNT      -0.794500
      7 O2A         -0.5030    -0.0870    -2.9830 o          1 MNT      -0.794500
      8 O3A         -0.5370     1.3140    -0.7590 os         1 MNT      -0.644800
      9 O5'         -0.4660     2.5390    -3.0840 os         1 MNT      -0.538200
     10 C5B          0.0690     2.4250    -4.4030 c3         1 MNT       0.171400
     11 C4B         -0.3710     3.6260    -5.2410 c3         1 MNT       0.137100
     12 O4'          0.1320     4.8520    -4.6630 os         1 MNT      -0.376600
     13 C3B          0.2570     3.5690    -6.6490 c3         1 MNT       0.123100
     14 O3'         -0.6870     3.0250    -7.6070 os         1 MNT      -0.420900
     15 C2B          0.5770     5.0430    -6.9820 c3         1 MNT      -0.150400
     16 C1B          0.1010     5.8200    -5.7350 c3         1 MNT       0.240800
     17 N9           1.0120     6.9310    -5.4480 na         1 MNT      -0.235000
     18 C8           2.1160     6.8840    -4.6500 cc         1 MNT       0.463700
     19 N7           2.6920     8.0500    -4.6180 nd         1 MNT      -0.626100
     20 C5           1.9970     8.9170    -5.3930 ca         1 MNT      -0.200200
     21 C6           2.1400    10.2740    -5.7300 ca         1 MNT       0.752200
     22 N6           3.1910    11.0220    -5.2280 nv         1 MNT      -1.007500
     23 N1           1.2440    10.8220    -6.5430 nb         1 MNT      -0.849000
     24 C2           0.2380    10.1170    -7.0280 ca         1 MNT       0.684900
     25 N3           0.0640     8.8440    -6.7380 nb         1 MNT      -0.781000
     26 C4           0.9140     8.2090    -5.9390 ca         1 MNT       0.460800
     27 C'          -0.2420     2.3690    -8.6970 c          1 MNT       0.665700
     28 O1'          0.9520     2.2330    -8.8780 o          1 MNT      -0.618000
     29 C1'         -1.2010     1.8170    -9.6670 ca         1 MNT      -0.234600
     30 C2'         -0.7480     1.0390   -10.7460 ca         1 MNT       0.253600
     31 N2'          0.6080     0.7820   -10.8980 nu         1 MNT      -0.825600
     32 CM'          1.0660    -0.1360   -11.9440 c3         1 MNT       0.228100
     33 C3'         -1.6630     0.5230   -11.6540 ca         1 MNT      -0.245000
     34 C4'         -3.0090     0.7810   -11.5010 ca         1 MNT      -0.132000
     35 C5'         -3.4600     1.5530   -10.4410 ca         1 MNT      -0.195000
     36 C6'         -2.5680     2.0720    -9.5300 ca         1 MNT      -0.059000
     37 H5'1         1.1510     2.3980    -4.3510 h1         1 MNT       0.067700
     38 H5'2        -0.2930     1.5130    -4.8610 h1         1 MNT       0.067700
     39 H4B         -1.4510     3.6640    -5.3150 h1         1 MNT       0.064700
     40 H3B          1.1670     2.9820    -6.6310 h1         1 MNT       0.096700
     41 H2'1         0.0250     5.3610    -7.8590 hc         1 MNT       0.062700
     42 H2'2         1.6420     5.1760    -7.1260 hc         1 MNT       0.062700
     43 H1'         -0.9090     6.1820    -5.8820 h2         1 MNT       0.078700
     44 H8           2.4620     6.0050    -4.1200 h5         1 MNT       0.115800
     45 HN61         3.4230    11.9010    -5.6450 hn         1 MNT       0.435800
     46 HN62         3.6970    10.6980    -4.4280 hn         1 MNT       0.435800
     47 H2          -0.4700    10.6030    -7.6870 h5         1 MNT       0.039100
     48 HN2'         1.2700     1.2040   -10.2780 hn         1 MNT       0.487800
     49 HM'1         0.8080     0.2670   -12.9160 h1         1 MNT       0.018700
     50 HM'2         2.1410    -0.2540   -11.8750 h1         1 MNT       0.018700
     51 HM'3         0.5880    -1.0990   -11.8140 h1         1 MNT       0.018700
     52 H3'         -1.3190    -0.0790   -12.4860 ha         1 MNT       0.108000
     53 H4'         -3.7190     0.3770   -12.2120 ha         1 MNT       0.096000
     54 H5'         -4.5190     1.7510   -10.3310 ha         1 MNT       0.106000
     55 H6'         -2.9270     2.6750    -8.7040 ha         1 MNT       0.140000
@<TRIPOS>BOND
     1     1     2 1
     2     1     3 1
     3     1     4 1
     4     1     8 1
     5     5     6 1
     6     5     7 1
     7     5     8 1
     8     5     9 1
     9     9    10 1
    10    10    11 1
    11    10    37 1
    12    10    38 1
    13    11    12 1
    14    11    13 1
    15    11    39 1
    16    12    16 1
    17    13    14 1
    18    13    15 1
    19    13    40 1
    20    14    27 1
    21    15    16 1
    22    15    41 1
    23    15    42 1
    24    16    17 1
    25    16    43 1
    26    17    18 1
    27    17    26 1
    28    18    19 2
    29    18    44 1
    30    19    20 1
    31    20    21 ar
    32    20    26 ar
    33    21    22 1
    34    21    23 ar
    35    22    45 1
    36    22    46 1
    37    23    24 ar
    38    24    25 ar
    39    24    47 1
    40    25    26 ar
    41    27    28 2
    42    27    29 1
    43    29    30 ar
    44    29    36 ar
    45    30    31 1
    46    30    33 ar
    47    31    32 1
    48    31    48 1
    49    32    49 1
    50    32    50 1
    51    32    51 1
    52    33    34 ar
    53    33    52 1
    54    34    35 ar
    55    34    53 1
    56    35    36 ar
    57    35    54 1
    58    36    55 1
@<TRIPOS>SUBSTRUCTURE
     1 MNT         1 TEMP              0 ****  ****    0 ROOT
