@<TRIPOS>MOLECULE
MNX
   27    29     1     0     0
SMALL
bcc


@<TRIPOS>ATOM
      1 C1         -0.0350    0.1500    0.0070 ca        1 MNX      0.208100
      2 C2          1.3560   -0.1070   -0.0220 ca        1 MNX     -0.242600
      3 C3          2.0070   -0.2370    1.2130 ca        1 MNX      0.169100
      4 C4          1.3360   -0.1230    2.4410 ca        1 MNX     -0.183000
      5 C5         -0.0320    0.1300    2.4270 ca        1 MNX     -0.038000
      6 C6         -0.7220    0.2670    1.2250 ca        1 MNX     -0.253000
      7 O13         3.3680   -0.4890    1.3340 os        1 MNX     -0.182200
      8 C14         4.1030   -0.6160    0.1800 ca        1 MNX      0.250100
      9 C15         3.5430   -0.5020   -1.1040 ca        1 MNX     -0.268600
     10 C16         2.1030   -0.2340   -1.2810 c         1 MNX      0.609300
     11 C22         4.3980   -0.6510   -2.2200 ca        1 MNX      0.251100
     12 C23         5.7730   -0.9060   -2.0520 ca        1 MNX     -0.275000
     13 C24         6.3090   -1.0150   -0.7810 ca        1 MNX      0.023000
     14 C25         5.4880   -0.8730    0.3530 ca        1 MNX     -0.264200
     15 O16         1.5830   -0.1290   -2.3950 o         1 MNX     -0.484100
     16 O1         -0.6670    0.2760   -1.1990 oh        1 MNX     -0.453100
     17 O22         3.8330   -0.5360   -3.4530 oh        1 MNX     -0.436100
     18 N25         6.0920   -0.9950    1.6970 no        1 MNX      0.333200
     19 O2B         7.2740   -1.2140    1.7740 o         1 MNX     -0.206500
     20 O2A         5.4020   -0.8750    2.6710 o         1 MNX     -0.206500
     21 HC4         1.8970   -0.2340    3.3810 ha        1 MNX      0.170000
     22 HC5        -0.5750    0.2220    3.3810 ha        1 MNX      0.146000
     23 HC6        -1.8030    0.4660    1.2270 ha        1 MNX      0.144000
     24 HC23        6.4210   -1.0190   -2.9340 ha        1 MNX      0.155000
     25 HC24        7.3880   -1.2160   -0.6470 ha        1 MNX      0.179000
     26 HO1        -1.6070    0.4480   -1.0300 ho        1 MNX      0.423000
     27 HO22        4.5260   -0.6590   -4.1230 ho        1 MNX      0.430000
@<TRIPOS>BOND
     1    1    2 ar
     2    1    6 ar
     3    1   16 1
     4    2    3 ar
     5    2   10 1
     6    3    4 ar
     7    3    7 1
     8    4    5 ar
     9    4   21 1
    10    5    6 ar
    11    5   22 1
    12    6   23 1
    13    7    8 1
    14    8    9 ar
    15    8   14 ar
    16    9   10 1
    17    9   11 ar
    18   10   15 2
    19   11   12 ar
    20   11   17 1
    21   12   13 ar
    22   12   24 1
    23   13   14 ar
    24   13   25 1
    25   14   18 1
    26   16   26 1
    27   17   27 1
    28   18   19 1
    29   18   20 1
@<TRIPOS>SUBSTRUCTURE
     1 MNX         1 TEMP              0 ****  ****    0 ROOT
