@<TRIPOS>MOLECULE
MNY
   30    32     1     0     0
SMALL
bcc


@<TRIPOS>ATOM
      1 C1           0.0000     0.0000     0.0000 ca         1 MNY       0.158600
      2 C2           1.3950     0.0000     0.0000 ca         1 MNY      -0.143100
      3 C3           2.0940     0.0000     1.2240 ca         1 MNY      -0.143100
      4 C4           1.3830     0.0020     2.4250 ca         1 MNY       0.158600
      5 C5          -0.0100     0.0040     2.4050 ca         1 MNY      -0.138500
      6 C6          -0.6920     0.0020     1.2100 ca         1 MNY      -0.138500
      7 C13          3.5680    -0.0030     1.2230 c          1 MNY       0.661800
      8 C14          4.2860     0.2980    -0.0260 ca         1 MNY      -0.186100
      9 C15          3.5860     0.3050    -1.2510 ca         1 MNY      -0.186100
     10 C16          2.1450    -0.0010    -1.2690 c          1 MNY       0.661800
     11 C22          4.2690     0.5870    -2.4370 ca         1 MNY       0.060100
     12 C23          5.6370     0.8700    -2.3990 ca         1 MNY      -0.118000
     13 C24          6.3190     0.8670    -1.2060 ca         1 MNY      -0.118000
     14 C25          5.6550     0.5820    -0.0110 ca         1 MNY       0.060100
     15 O16          1.5810    -0.2460    -2.3190 o          1 MNY      -0.560600
     16 O13          4.1830    -0.2510     2.2430 o          1 MNY      -0.560600
     17 O1          -0.6820    -0.0000    -1.1730 oh         1 MNY      -0.460100
     18 N22          3.5910     0.5910    -3.6470 nv         1 MNY      -0.463200
     19 N25          6.3520     0.5820     1.1900 nv         1 MNY      -0.463200
     20 O4           2.0470     0.0030     3.6080 oh         1 MNY      -0.460100
     21 HC5         -0.5610     0.0060     3.3370 ha         1 MNY       0.113000
     22 HC6         -1.7750     0.0040     1.2090 ha         1 MNY       0.113000
     23 HC23         6.1650     1.0930    -3.3190 ha         1 MNY       0.106500
     24 HC24         7.3790     1.0880    -1.1930 ha         1 MNY       0.106500
     25 HO1         -1.3610    -0.6540    -1.1420 ho         1 MNY       0.402000
     26 H221         2.7550     1.1320    -3.7500 hn         1 MNY       0.283800
     27 H222         3.9500     0.0730    -4.4240 hn         1 MNY       0.283800
     28 H251         5.8600     0.4660     2.0540 hn         1 MNY       0.283800
     29 H252         7.3410     0.7320     1.1930 hn         1 MNY       0.283800
     30 HO4          1.6710    -0.6450     4.1800 ho         1 MNY       0.402000
@<TRIPOS>BOND
     1     1     2 ar  
     2     1     6 ar  
     3     1    17 1   
     4     2     3 ar  
     5     2    10 1   
     6     3     4 ar  
     7     3     7 1   
     8     4     5 ar  
     9     4    20 1   
    10     5     6 ar  
    11     5    21 1   
    12     6    22 1   
    13     7     8 1   
    14     7    16 2   
    15     8     9 ar  
    16     8    14 ar  
    17     9    10 1   
    18     9    11 ar  
    19    10    15 2   
    20    11    12 ar  
    21    11    18 1   
    22    12    13 ar  
    23    12    23 1   
    24    13    14 ar  
    25    13    24 1   
    26    14    19 1   
    27    17    25 1   
    28    18    26 1   
    29    18    27 1   
    30    19    28 1   
    31    19    29 1   
    32    20    30 1   
@<TRIPOS>SUBSTRUCTURE
     1 MNY         1 TEMP              0 ****  ****    0 ROOT
