@<TRIPOS>MOLECULE
molecule
   43    42     1     0     0
SMALL
bcc


@<TRIPOS>ATOM
      1 OAB          0.0000     0.0000     0.0000 oh         1 MO0      -0.614800
      2 CAF          1.4290     0.0000     0.0000 c3         1 MO0       0.108400
      3 CAG          1.9390     0.0000     1.4420 c3         1 MO0       0.134100
      4 OAC          1.5620    -1.2210     2.0810 oh         1 MO0      -0.614800
      5 CAH          3.4640     0.1250     1.4430 c3         1 MO0       0.144100
      6 OAM          3.8420     1.3470     0.8040 oh         1 MO0      -0.585800
      7 CAI          3.9750     0.1260     2.8850 c3         1 MO0       0.144100
      8 OAD          3.3170     1.1590     3.6230 oh         1 MO0      -0.580800
      9 CAJ          5.4850     0.3760     2.8920 c3         1 MO0       0.128100
     10 OAE          6.1420    -0.6550     2.1550 oh         1 MO0      -0.620800
     11 CAK          5.9950     0.3760     4.3350 c3         1 MO0       0.148800
     12 N            7.4190     0.7360     4.3500 n7         1 MO0      -0.851200
     13 CA           7.9450     0.7460     5.7210 c3         1 MO0       0.050500
     14 C            7.6680     2.0840     6.3560 c          1 MO0       0.864600
     15 OXT          7.0910     2.9420     5.7290 o          1 MO0      -0.816800
     16 CB           9.4540     0.4980     5.6910 c3         1 MO0      -0.039400
     17 CG           9.7300    -0.9100     5.1630 c3         1 MO0      -0.156400
     18 CD          11.2170    -1.1540     5.1330 c          1 MO0       0.462100
     19 OE1         11.9810    -0.2860     5.4990 o          1 MO0      -0.398100
     20 NE2         11.6980    -2.3360     4.7000 nz         1 MO0      -0.688400
     21 O            8.0610     2.3250     7.6160 o          1 MO0      -0.816800
     22 H1          -0.3140     0.0280    -0.8880 ho         1 MO0       0.404000
     23 H2           1.7900     0.8840    -0.5110 h1         1 MO0       0.029200
     24 H3           1.7900    -0.8840    -0.5110 h1         1 MO0       0.029200
     25 H4           1.5080     0.8370     1.9780 h1         1 MO0       0.075700
     26 H5           0.6680    -1.1600     2.3730 ho         1 MO0       0.418000
     27 H6           3.8960    -0.7110     0.9080 h1         1 MO0       0.051700
     28 H7           4.2660     1.1550    -0.0160 ho         1 MO0       0.393000
     29 H8           3.7660    -0.8340     3.3420 h1         1 MO0       0.058700
     30 H9           2.8950     0.7850     4.3790 ho         1 MO0       0.404000
     31 H10          5.6940     1.3360     2.4350 h1         1 MO0       0.068700
     32 H11          6.7120    -0.2680     1.5110 ho         1 MO0       0.396000
     33 H12          5.8670    -0.6100     4.7630 h1         1 MO0       0.053200
     34 H13          5.4340     1.0980     4.9160 h1         1 MO0       0.053200
     35 H14          7.5390     1.6410     3.9400 hn         1 MO0       0.378800
     36 H16          7.4630    -0.0340     6.2980 h1         1 MO0       0.052700
     37 H18          9.9260     1.2260     5.0420 hc         1 MO0       0.074200
     38 H19          9.8560     0.5930     6.6930 hc         1 MO0       0.074200
     39 H20          9.3290    -1.0050     4.1610 hc         1 MO0       0.094700
     40 H21          9.2580    -1.6380     5.8110 hc         1 MO0       0.094700
     41 H22         11.4420    -2.4690     3.7410 hn         1 MO0       0.465800
     42 H23         12.6950    -2.3420     4.7830 hn         1 MO0       0.465800
     43 HE23        11.3130    -3.0760     5.2530 hn         1 MO0       0.465800
@<TRIPOS>BOND
     1    21    14 1
     2    14    15 1
     3    14    13 1
     4    13    16 1
     5    13    12 1
     6    16    17 1
     7    17    18 1
     8    11    12 1
     9    11     9 1
    10    20    18 1
    11    18    19 2
    12     8     7 1
    13     7     9 1
    14     7     5 1
    15     9    10 1
    16     4     3 1
    17     5     3 1
    18     5     6 1
    19     3     2 1
    20     2     1 1
    21     1    22 1
    22     2    23 1
    23     2    24 1
    24     3    25 1
    25     4    26 1
    26     5    27 1
    27     6    28 1
    28     7    29 1
    29     8    30 1
    30     9    31 1
    31    10    32 1
    32    11    33 1
    33    11    34 1
    34    12    35 1
    35    13    36 1
    36    16    37 1
    37    16    38 1
    38    17    39 1
    39    17    40 1
    40    20    41 1
    41    20    42 1
    42    43    20 1
@<TRIPOS>SUBSTRUCTURE
     1 MO0         1 TEMP              0 ****  ****    0 ROOT
