@<TRIPOS>MOLECULE
MO8
   23    24     1     0     0
SMALL
bcc


@<TRIPOS>ATOM
      1 N11          0.0000     0.0000     0.0000 nv         1 MO8      -0.638500
      2 C9           1.3840     0.0000     0.0000 ca         1 MO8       0.719900
      3 N8           2.0350     0.0000     1.1550 nb         1 MO8      -0.623000
      4 C7           3.3520     0.0090     1.1690 ca         1 MO8       0.420600
      5 C12          4.0890     0.0160     2.4840 c3         1 MO8      -0.052400
      6 C2           4.0680     0.0100    -0.0310 ca         1 MO8      -0.328900
      7 N10          2.0310    -0.0060    -1.1480 nb         1 MO8      -0.641000
      8 C3           3.3690    -0.0060    -1.2090 ca         1 MO8       0.435600
      9 C4           3.9420    -0.0610    -2.5950 c3         1 MO8      -0.073700
     10 C5           5.3840     0.4240    -2.6710 c3         1 MO8       0.091700
     11 S6           6.3500    -0.4990    -1.4370 ss         1 MO8      -0.394200
     12 C1           5.5680     0.0430     0.1010 c3         1 MO8       0.153000
     13 HN11        -0.5000     0.8660     0.0310 hn         1 MO8       0.280800
     14 HN1A        -0.5000    -0.8660    -0.0400 hn         1 MO8       0.280800
     15 H12          4.6570    -0.9010     2.5840 hc         1 MO8       0.021367
     16 H12A         3.3760     0.0900     3.2960 hc         1 MO8       0.021367
     17 H12B         4.7620     0.8640     2.5160 hc         1 MO8       0.021367
     18 H4           3.9040    -1.0860    -2.9440 hc         1 MO8       0.044700
     19 H4A          3.3340     0.5560    -3.2450 hc         1 MO8       0.044700
     20 H5           5.7800     0.2360    -3.6620 h1         1 MO8       0.049700
     21 H5A          5.4250     1.4840    -2.4500 h1         1 MO8       0.049700
     22 H1           5.8700    -0.6170     0.9060 h1         1 MO8       0.057200
     23 H1A          5.8840     1.0550     0.3240 h1         1 MO8       0.057200
@<TRIPOS>BOND
     1     1     2 1   
     2     1    13 1   
     3     1    14 1   
     4     2     3 ar  
     5     2     7 ar  
     6     3     4 ar  
     7     4     5 1   
     8     4     6 ar  
     9     5    15 1   
    10     5    16 1   
    11     5    17 1   
    12     6     8 ar  
    13     6    12 1   
    14     7     8 ar  
    15     8     9 1   
    16     9    10 1   
    17     9    18 1   
    18     9    19 1   
    19    10    11 1   
    20    10    20 1   
    21    10    21 1   
    22    11    12 1   
    23    12    22 1   
    24    12    23 1   
@<TRIPOS>SUBSTRUCTURE
     1 MO8         1 TEMP              0 ****  ****    0 ROOT
