@<TRIPOS>MOLECULE
molecule
   52    53     1     0     0
SMALL
bcc


@<TRIPOS>ATOM
      1 C1           0.0000     0.0000     0.0000 ca         1 MO9       0.135100
      2 C2           1.3870     0.0000     0.0000 ca         1 MO9      -0.093300
      3 C3           2.0770     0.0000     1.1970 ca         1 MO9      -0.082000
      4 C4           1.3850    -0.0150     2.3940 ca         1 MO9      -0.138000
      5 C5           0.0020    -0.0210     2.3970 ca         1 MO9      -0.102000
      6 C6          -0.6910    -0.0140     1.2020 ca         1 MO9      -0.226000
      7 C7           2.1420     0.0160    -1.3040 c3         1 MO9      -0.128300
      8 C9           3.3520    -1.3530    -3.3820 c3         1 MO9      -0.213600
      9 C10          3.7430    -2.6760    -4.0430 c3         1 MO9       0.122100
     10 C12          4.4830    -2.3980    -5.3260 c          1 MO9       0.619100
     11 S8           2.4610    -1.6880    -1.8380 s6         1 MO9       1.084000
     12 O11          4.5980    -3.4320    -3.1460 os         1 MO9      -0.421900
     13 O13          3.3500    -2.3030    -0.9160 o          1 MO9      -0.594300
     14 O14          1.2240    -2.3160    -2.1460 o          1 MO9      -0.594300
     15 N15          3.8510    -1.7940    -6.3510 ns         1 MO9      -0.566900
     16 O16          5.6480    -2.7160    -5.4350 o          1 MO9      -0.571100
     17 C17          4.5710    -1.5230    -7.5990 c3         1 MO9       0.201100
     18 C18          3.6660    -0.8630    -8.5540 c1         1 MO9       0.185700
     19 C19          4.5870    -4.7780    -3.1800 c          1 MO9       0.758100
     20 N20          5.3810    -5.4800    -2.3470 n          1 MO9      -0.461800
     21 O21          3.8630    -5.3600    -3.9630 o          1 MO9      -0.616000
     22 C22          5.3920    -6.9530    -2.3610 c3         1 MO9       0.089000
     23 C23          6.8520    -7.4190    -2.3720 c3         1 MO9       0.090400
     24 O24          7.5430    -6.8560    -1.2570 os         1 MO9      -0.402600
     25 C25          7.6560    -5.4520    -1.4810 c3         1 MO9       0.090400
     26 C26          6.2750    -4.8020    -1.3910 c3         1 MO9       0.089000
     27 O27         -0.6800     0.0070    -1.1770 os         1 MO9      -0.336900
     28 C28         -2.0720    -0.0020    -0.8500 c3         1 MO9       0.566700
     29 F29         -2.3790     1.1330    -0.0910 f          1 MO9      -0.222300
     30 F30         -2.3690    -1.1530    -0.1110 f          1 MO9      -0.222300
     31 N31          2.9750    -0.3650    -9.3050 n1         1 MO9      -0.350800
     32 H3           3.1400    -0.1850     1.2940 ha         1 MO9       0.150000
     33 H4           1.9420     0.0710     3.3200 ha         1 MO9       0.137000
     34 H5          -0.7750     0.0980     3.1430 ha         1 MO9       0.142000
     35 H6          -1.7030     0.1490     1.5550 ha         1 MO9       0.174000
     36 H71          1.4300     0.3720    -2.0390 h1         1 MO9       0.102200
     37 H72          3.0720     0.5580    -1.4210 h1         1 MO9       0.102200
     38 H91          2.8860    -1.0450    -4.3100 h1         1 MO9       0.113700
     39 H92          4.0660    -0.8220    -2.7640 h1         1 MO9       0.113700
     40 H10          2.8490    -3.2490    -4.2590 h1         1 MO9       0.103700
     41 HN15         2.8940    -1.7900    -6.0590 hn         1 MO9       0.334500
     42 H171         5.4480    -0.8880    -7.6130 h1         1 MO9       0.080200
     43 H172         5.1040    -2.2690    -8.1770 h1         1 MO9       0.080200
     44 H221         4.7020    -7.1180    -1.5430 h1         1 MO9       0.072700
     45 H222         5.1190    -7.5820    -3.1990 h1         1 MO9       0.072700
     46 H231         6.8570    -8.4920    -2.2240 h1         1 MO9       0.064200
     47 H232         7.0410    -7.2790    -3.4290 h1         1 MO9       0.064200
     48 H251         8.0190    -5.2330    -0.4840 h1         1 MO9       0.064200
     49 H252         8.4820    -5.3870    -2.1790 h1         1 MO9       0.064200
     50 H261         6.7850    -3.8540    -1.5090 h1         1 MO9       0.072700
     51 H262         5.6550    -4.6370    -0.5180 h1         1 MO9       0.072700
     52 H28         -2.3830     0.0840    -1.8840 h3         1 MO9       0.129700
@<TRIPOS>BOND
     1     1     2 ar
     2     1     6 ar
     3     1    27 1
     4     2     3 ar
     5     2     7 1
     6     3     4 ar
     7     3    32 1
     8     4     5 ar
     9     4    33 1
    10     5     6 ar
    11     5    34 1
    12     6    35 1
    13     7    11 1
    14     7    36 1
    15     7    37 1
    16     8     9 1
    17     8    11 1
    18     8    38 1
    19     8    39 1
    20     9    10 1
    21     9    12 1
    22     9    40 1
    23    10    15 1
    24    10    16 2
    25    11    13 2
    26    11    14 2
    27    12    19 1
    28    15    17 1
    29    15    41 1
    30    17    18 1
    31    17    42 1
    32    17    43 1
    33    18    31 3
    34    19    20 1
    35    19    21 2
    36    20    22 1
    37    20    26 1
    38    22    23 1
    39    22    44 1
    40    22    45 1
    41    23    24 1
    42    23    46 1
    43    23    47 1
    44    24    25 1
    45    25    26 1
    46    25    48 1
    47    25    49 1
    48    26    50 1
    49    26    51 1
    50    27    28 1
    51    28    29 1
    52    28    30 1
    53    28    52 1
@<TRIPOS>SUBSTRUCTURE
     1 MO9         1 TEMP              0 ****  ****    0 ROOT
