@<TRIPOS>MOLECULE
MOA
   42    43     1     0     0
SMALL
bcc


@<TRIPOS>ATOM
      1 C1         -0.0410   -0.3770   -0.1080 c         1 MOA      0.747200
      2 C2          5.2610    1.2250   -2.1370 c2        1 MOA     -0.240200
      3 C3          5.1090    1.9020   -3.2870 c2        1 MOA     -0.054400
      4 C4          5.7000    3.2600   -3.4690 c3        1 MOA     -0.046200
      5 C5          6.8030    3.2750   -4.5030 c3        1 MOA     -0.191400
      6 C6          7.1530    4.7140   -4.9250 c         1 MOA      0.907600
      7 C7          3.5910    0.0360    3.0310 c3        1 MOA     -0.047800
      8 C8          6.1250   -1.0780    1.2370 c3        1 MOA      0.116700
      9 C9          4.3570    1.3610   -4.4470 c3        1 MOA     -0.069900
     10 C10         0.5860   -0.1920    2.1220 c3        1 MOA      0.169700
     11 C11         1.8250   -0.1780    1.2750 ca        1 MOA     -0.069300
     12 C12         3.1550   -0.0800    1.6230 ca        1 MOA     -0.103300
     13 C13         4.1000   -0.0800    0.5570 ca        1 MOA      0.145100
     14 C14         3.7370   -0.1720   -0.7910 ca        1 MOA     -0.088300
     15 C15         2.3540   -0.2740   -1.1120 ca        1 MOA      0.229100
     16 C16         1.4220   -0.2830   -0.0830 ca        1 MOA     -0.290600
     17 C17         4.7590   -0.1480   -1.8780 c3        1 MOA      0.018100
     18 O1         -0.8700   -0.4940   -1.0040 o         1 MOA     -0.592500
     19 O2         -0.5280   -0.3260    1.1960 os        1 MOA     -0.416900
     20 O3          5.4410    0.1200    0.8690 os        1 MOA     -0.331900
     21 O4          2.0100   -0.3860   -2.4290 oh        1 MOA     -0.475100
     22 O5          8.3740    4.9920   -5.0990 o         1 MOA     -0.850300
     23 O6          6.2090    5.5390   -5.0970 o         1 MOA     -0.850300
     24 H21         5.8100    1.6700   -1.2900 ha        1 MOA      0.129000
     25 H41         4.8960    3.9760   -3.8020 hc        1 MOA      0.057700
     26 H42         6.1030    3.6450   -2.4950 hc        1 MOA      0.057700
     27 H51         6.4780    2.7220   -5.4220 hc        1 MOA      0.022700
     28 H52         7.7190    2.7720   -4.1050 hc        1 MOA      0.022700
     29 H71         4.5610    0.5900    3.0970 hc        1 MOA      0.048033
     30 H72         2.8250    0.5820    3.6360 hc        1 MOA      0.048033
     31 H73         3.7330   -0.9800    3.4780 hc        1 MOA      0.048033
     32 H81         5.6790   -1.5070    2.1670 h1        1 MOA      0.040700
     33 H82         6.0870   -1.8240    0.4070 h1        1 MOA      0.040700
     34 H83         7.1750   -0.7360    1.4160 h1        1 MOA      0.040700
     35 H91         4.9560    0.5650   -4.9550 hc        1 MOA      0.041700
     36 H92         3.3830    0.9160   -4.1200 hc        1 MOA      0.041700
     37 H93         4.1480    2.1670   -5.1940 hc        1 MOA      0.041700
     38 H1O1        0.5380   -1.0720    2.8110 h1        1 MOA      0.074700
     39 H102        0.4320    0.7660    2.6790 h1        1 MOA      0.074700
     40 H171        5.6300   -0.7890   -1.5610 hc        1 MOA      0.053200
     41 H172        4.3250   -0.6030   -2.8090 hc        1 MOA      0.053200
     42 HO41        1.0380   -0.3820   -2.4910 ho        1 MOA      0.447000
@<TRIPOS>BOND
     1    1   16 1   
     2    1   18 2   
     3    1   19 1   
     4    2    3 2   
     5    2   17 1   
     6    2   24 1   
     7    3    4 1   
     8    3    9 1   
     9    4    5 1   
    10    4   25 1   
    11    4   26 1   
    12    5    6 1   
    13    5   27 1   
    14    5   28 1   
    15    6   22 1   
    16    6   23 1   
    17    7   12 1   
    18    7   29 1   
    19    7   30 1   
    20    7   31 1   
    21    8   20 1   
    22    8   32 1   
    23    8   33 1   
    24    8   34 1   
    25    9   35 1   
    26    9   36 1   
    27    9   37 1   
    28   10   11 1   
    29   10   19 1   
    30   10   38 1   
    31   10   39 1   
    32   11   12 ar  
    33   11   16 ar  
    34   12   13 ar  
    35   13   14 ar  
    36   13   20 1   
    37   14   15 ar  
    38   14   17 1   
    39   15   16 ar  
    40   15   21 1   
    41   17   40 1   
    42   17   41 1   
    43   21   42 1   
@<TRIPOS>SUBSTRUCTURE
     1 MOA         1 TEMP              0 ****  ****    0 ROOT
