@<TRIPOS>MOLECULE
molecule
   42    43     1     0     0
SMALL
bcc


@<TRIPOS>ATOM
      1 C1           0.0000     0.0000     0.0000 c          1 MOA       0.752200
      2 C2           5.1260     1.4290    -2.2040 c2         1 MOA      -0.224200
      3 C3           5.0440     1.8160    -3.4520 c2         1 MOA      -0.079400
      4 C4           5.2170     3.2710    -3.8030 c3         1 MOA      -0.030200
      5 C5           6.6930     3.5570    -4.0810 c3         1 MOA      -0.177400
      6 C6           6.8670     5.0110    -4.4310 c          1 MOA       0.889600
      7 C7           3.6860    -0.0010     3.0610 c3         1 MOA      -0.045800
      8 C8           5.9020    -1.3660     0.9870 c3         1 MOA       0.115700
      9 C9           4.7750     0.8060    -4.5380 c3         1 MOA      -0.060900
     10 C10          0.6580    -0.0000     2.1820 c3         1 MOA       0.182700
     11 C11          1.9030     0.0000     1.3300 ca         1 MOA      -0.096300
     12 C12          3.2330    -0.0000     1.6230 ca         1 MOA      -0.105300
     13 C13          4.1760     0.0010     0.5990 ca         1 MOA       0.143100
     14 C14          3.7660     0.0080    -0.7270 ca         1 MOA      -0.102300
     15 C15          2.4160     0.0010    -1.0350 ca         1 MOA       0.212100
     16 C16          1.4680     0.0000     0.0000 ca         1 MOA      -0.266600
     17 C17          4.7900     0.0080    -1.8310 c3         1 MOA       0.011100
     18 O1          -0.6940     0.0010    -0.9970 o          1 MOA      -0.576500
     19 O2          -0.4660    -0.0010     1.2610 os         1 MOA      -0.390900
     20 O3           5.5000     0.0020     0.8970 os         1 MOA      -0.307900
     21 O4           2.0130     0.0010    -2.3300 oh         1 MOA      -0.485100
     22 O5           8.0870     5.4930    -4.7160 o          1 MOA      -0.855800
     23 O6           5.9070     5.7450    -4.4570 o          1 MOA      -0.855800
     24 H21          5.3200     2.1570    -1.4250 ha         1 MOA       0.138000
     25 H41          4.6330     3.5010    -4.6860 hc         1 MOA       0.056200
     26 H42          4.8800     3.8850    -2.9770 hc         1 MOA       0.056200
     27 H51          7.2780     3.3260    -3.1980 hc         1 MOA       0.030200
     28 H52          7.0310     2.9440    -4.9080 hc         1 MOA       0.030200
     29 H71          2.9720     0.5470     3.6640 hc         1 MOA       0.046033
     30 H72          3.7540    -1.0210     3.4180 hc         1 MOA       0.046033
     31 H73          4.6580     0.4720     3.1330 hc         1 MOA       0.046033
     32 H81          6.7350    -1.5430     0.3170 h1         1 MOA       0.037700
     33 H82          6.2050    -1.5870     2.0040 h1         1 MOA       0.037700
     34 H83          5.0730    -2.0060     0.7100 h1         1 MOA       0.037700
     35 H91          4.9510     1.2600    -5.5050 hc         1 MOA       0.035700
     36 H92          5.4360    -0.0440    -4.4120 hc         1 MOA       0.035700
     37 H93          3.7450     0.4750    -4.4760 hc         1 MOA       0.035700
     38 H1O1         0.6320    -0.9030     2.7810 h1         1 MOA       0.074700
     39 H102         0.6320     0.9020     2.7810 h1         1 MOA       0.074700
     40 H171         4.3890    -0.5060    -2.6960 hc         1 MOA       0.051700
     41 H172         5.6860    -0.4980    -1.4930 hc         1 MOA       0.051700
     42 HO41         1.4900    -0.7650    -2.4970 ho         1 MOA       0.429000
@<TRIPOS>BOND
     1     1    16 1
     2     1    18 2
     3     1    19 1
     4     2     3 2
     5     2    17 1
     6     2    24 1
     7     3     4 1
     8     3     9 1
     9     4     5 1
    10     4    25 1
    11     4    26 1
    12     5     6 1
    13     5    27 1
    14     5    28 1
    15     6    22 1
    16     6    23 1
    17     7    12 1
    18     7    29 1
    19     7    30 1
    20     7    31 1
    21     8    20 1
    22     8    32 1
    23     8    33 1
    24     8    34 1
    25     9    35 1
    26     9    36 1
    27     9    37 1
    28    10    11 1
    29    10    19 1
    30    10    38 1
    31    10    39 1
    32    11    12 ar
    33    11    16 ar
    34    12    13 ar
    35    13    14 ar
    36    13    20 1
    37    14    15 ar
    38    14    17 1
    39    15    16 ar
    40    15    21 1
    41    17    40 1
    42    17    41 1
    43    21    42 1
@<TRIPOS>SUBSTRUCTURE
     1 MOA         1 TEMP              0 ****  ****    0 ROOT
