@<TRIPOS>MOLECULE
molecule
   35    36     1     0     0
SMALL
bcc


@<TRIPOS>ATOM
      1 C1           0.0000     0.0000     0.0000 ca         1 MOB       0.074400
      2 C2           1.4090     0.0000     0.0000 ca         1 MOB      -0.019600
      3 C3           2.0980     0.0000     1.2130 ca         1 MOB      -0.119000
      4 C4           1.3990    -0.0110     2.4020 ca         1 MOB      -0.121000
      5 C5           0.0130    -0.0150     2.4030 ca         1 MOB      -0.177000
      6 C6          -0.6880    -0.0090     1.2150 ca         1 MOB      -0.121000
      7 C1'         -2.6650     0.0060    -2.3490 ca         1 MOB       0.207400
      8 C2'         -4.0640     0.0010    -2.3450 ca         1 MOB      -0.241500
      9 C3'         -4.7580     0.0070    -3.5400 ca         1 MOB       0.131100
     10 C4'         -4.0660     0.0120    -4.7480 ca         1 MOB       0.009100
     11 C5'         -2.6730     0.0220    -4.7560 ca         1 MOB       0.131100
     12 C6'         -1.9730     0.0170    -3.5650 ca         1 MOB      -0.241500
     13 C            2.1520     0.0100    -1.2750 c          1 MOB       0.872200
     14 CHX         -6.5270    -0.0090    -2.1670 c3         1 MOB       0.103700
     15 CHZ         -0.6080     0.0350    -5.6210 c3         1 MOB       0.103700
     16 N1          -0.6880     0.0050    -1.1790 ne         1 MOB      -0.077400
     17 N1'         -1.9780     0.0000    -1.1730 nf         1 MOB      -0.325400
     18 O            1.5470     0.0110    -2.3290 o          1 MOB      -0.816800
     19 OXT          3.4990     0.0180    -1.2710 o          1 MOB      -0.816800
     20 O3'         -6.1170     0.0020    -3.5370 os         1 MOB      -0.298400
     21 O4'         -4.7510     0.0170    -5.9220 oh         1 MOB      -0.501100
     22 O5'         -2.0010     0.0330    -5.9390 os         1 MOB      -0.298400
     23 H3           3.1810     0.0020     1.2210 ha         1 MOB       0.164000
     24 H4           1.9370    -0.0130     3.3420 ha         1 MOB       0.110000
     25 H5          -0.5240    -0.0220     3.3440 ha         1 MOB       0.108000
     26 H6          -1.7710    -0.0110     1.2250 ha         1 MOB       0.137000
     27 H2'         -4.6030     0.0190    -1.4060 ha         1 MOB       0.162000
     28 H6'         -1.3560    -0.8650    -3.4360 ha         1 MOB       0.162000
     29 H31         -6.1320    -0.8920    -1.6790 h1         1 MOB       0.049867
     30 H32         -6.1510     0.8770    -1.6700 h1         1 MOB       0.049867
     31 H33         -7.6090    -0.0210    -2.1140 h1         1 MOB       0.049867
     32 H51         -0.3390    -0.9110    -5.1660 h1         1 MOB       0.049867
     33 H52         -0.0310     0.1760    -6.5280 h1         1 MOB       0.049867
     34 H53         -0.3960     0.8420    -4.9300 h1         1 MOB       0.049867
     35 HO4'        -4.9090     0.9070    -6.1900 ho         1 MOB       0.403000
@<TRIPOS>BOND
     1     1     2 ar
     2     1     6 ar
     3     1    16 1
     4     2     3 ar
     5     2    13 1
     6     3     4 ar
     7     3    23 1
     8     4     5 ar
     9     4    24 1
    10     5     6 ar
    11     5    25 1
    12     6    26 1
    13     7     8 ar
    14     7    12 ar
    15     7    17 1
    16     8     9 ar
    17     8    27 1
    18     9    10 ar
    19     9    20 1
    20    10    11 ar
    21    10    21 1
    22    11    12 ar
    23    11    22 1
    24    12    28 1
    25    13    18 1
    26    13    19 1
    27    14    20 1
    28    14    29 1
    29    14    30 1
    30    14    31 1
    31    15    22 1
    32    15    32 1
    33    15    33 1
    34    15    34 1
    35    16    17 2
    36    21    35 1
@<TRIPOS>SUBSTRUCTURE
     1 MOB         1 TEMP              0 ****  ****    0 ROOT
