@<TRIPOS>MOLECULE
MOC
   41    43     1     0     0
SMALL
bcc


@<TRIPOS>ATOM
      1 C1           0.0000     0.0000     0.0000 c3         1 MOC       0.074900
      2 C2           1.5450     0.0000     0.0000 c3         1 MOC      -0.095500
      3 N2           2.0700     1.2080    -0.6480 nz         1 MOC       0.098400
      4 C3           1.8610     0.0000     1.5100 c3         1 MOC      -0.046700
      5 N4           0.6940    -0.6220     2.1600 na         1 MOC       0.525900
      6 C4A          0.3340    -1.2030     3.3490 cc         1 MOC      -0.312900
      7 C5           1.0730    -1.4630     4.5950 c          1 MOC       0.626900
      8 O5           2.2400    -1.1330     4.6890 o          1 MOC      -0.449100
      9 C6           0.4060    -2.1200     5.7210 cc         1 MOC       0.066600
     10 CM6          1.1750    -2.3860     6.9910 c3         1 MOC       0.000100
     11 C7          -0.8920    -2.4850     5.6370 cd         1 MOC      -0.451200
     12 N7          -1.5040    -3.0960     6.7120 nz         1 MOC       0.296600
     13 C8          -1.6620    -2.2300     4.3910 c          1 MOC       0.702900
     14 O8          -2.8290    -2.5580     4.3170 o          1 MOC      -0.528100
     15 C8A         -0.9980    -1.5750     3.2480 cd         1 MOC      -0.170600
     16 C9          -1.4300    -1.2040     1.9630 cd         1 MOC      -0.069300
     17 C9A         -0.3740    -0.6300     1.3270 cc         1 MOC      -0.296600
     18 C10         -2.8100    -1.4030     1.3920 c3         1 MOC       0.343700
     19 O10         -3.6290    -0.2420     1.6900 os         1 MOC      -0.415900
     20 C11         -4.9100    -0.1980     1.2760 c          1 MOC       0.436100
     21 O11         -5.3800    -1.1280     0.6530 o          1 MOC      -0.415000
     22 N12         -5.6700     0.8810     1.5530 nz         1 MOC       0.261600
     23 H11         -0.3770     1.0140    -0.0560 hc         1 MOC       0.056700
     24 H12         -0.3770    -0.5980    -0.8210 hc         1 MOC       0.056700
     25 H2           1.9280    -0.8970    -0.4710 hx         1 MOC       0.125700
     26 HN21         3.0680     1.2210    -0.5710 hn         1 MOC       0.238467
     27 HN22         1.6910     2.0190    -0.2010 hn         1 MOC       0.238467
     28 H31          2.7520    -0.5850     1.7040 h1         1 MOC       0.072700
     29 H32          1.9870     1.0160     1.8640 h1         1 MOC       0.072700
     30 HM61         2.1910    -2.0280     6.8790 hc         1 MOC       0.063367
     31 HM62         1.1860    -3.4500     7.1900 hc         1 MOC       0.063367
     32 HM63         0.6990    -1.8690     7.8150 hc         1 MOC       0.063367
     33 HN71        -2.4640    -3.2740     6.4920 hn         1 MOC       0.222800
     34 HN72        -1.4510    -2.4970     7.5110 hn         1 MOC       0.222800
     35 H101        -3.2600    -2.2840     1.8340 h1         1 MOC       0.046200
     36 H102        -2.7430    -1.5320     0.3190 h1         1 MOC       0.046200
     37 H121        -5.3960     1.2650     2.4350 hn         1 MOC       0.254467
     38 H122        -5.5470     1.5680     0.8360 hn         1 MOC       0.254467
     39 H23          1.8160     1.2040    -1.6160 hn         1 MOC       0.238467
     40 H73         -1.0260    -3.9490     6.9280 hn         1 MOC       0.222800
     41 H123        -6.6330     0.6090     1.5920 hn         1 MOC       0.254467
@<TRIPOS>BOND
     1     1     2 1   
     2     1    17 1   
     3     1    23 1   
     4     1    24 1   
     5     2     3 1   
     6     2     4 1   
     7     2    25 1   
     8     3    26 1   
     9     3    27 1   
    10     3    39 1   
    11     4     5 1   
    12     4    28 1   
    13     4    29 1   
    14     5     6 1   
    15     5    17 1   
    16     6     7 1   
    17     6    15 2   
    18     7     8 2   
    19     7     9 1   
    20     9    10 1   
    21     9    11 2   
    22    10    30 1   
    23    10    31 1   
    24    10    32 1   
    25    11    12 1   
    26    11    13 1   
    27    12    33 1   
    28    12    34 1   
    29    12    40 1   
    30    13    14 2   
    31    13    15 1   
    32    15    16 1   
    33    16    17 2   
    34    16    18 1   
    35    18    19 1   
    36    18    35 1   
    37    18    36 1   
    38    19    20 1   
    39    20    21 2   
    40    20    22 1   
    41    22    37 1   
    42    22    38 1   
    43    22    41 1   
@<TRIPOS>SUBSTRUCTURE
     1 MOC         1 TEMP              0 ****  ****    0 ROOT
