@<TRIPOS>MOLECULE
molecule
   41    43     1     0     0
SMALL
bcc


@<TRIPOS>ATOM
      1 C1           0.0000     0.0000     0.0000 c3         1 MOC      -0.035100
      2 C2           1.5450     0.0000     0.0000 c3         1 MOC       0.083500
      3 N2           2.0700     1.2080    -0.6480 nz         1 MOC      -0.803600
      4 C3           1.8610     0.0000     1.5100 c3         1 MOC       0.030300
      5 N4           0.6940    -0.6220     2.1600 na         1 MOC      -0.002100
      6 C4A          0.3340    -1.2030     3.3490 cc         1 MOC      -0.103900
      7 C5           1.0730    -1.4630     4.5950 c          1 MOC       0.576900
      8 O5           2.2400    -1.1330     4.6890 o          1 MOC      -0.410100
      9 C6           0.4060    -2.1200     5.7210 cc         1 MOC       0.004600
     10 CM6          1.1750    -2.3860     6.9910 c3         1 MOC      -0.103900
     11 C7          -0.8920    -2.4850     5.6370 cd         1 MOC      -0.181200
     12 N7          -1.5040    -3.0960     6.7120 nz         1 MOC      -0.651400
     13 C8          -1.6620    -2.2300     4.3910 c          1 MOC       0.622900
     14 O8          -2.8290    -2.5580     4.3170 o          1 MOC      -0.490100
     15 C8A         -0.9980    -1.5750     3.2480 cd         1 MOC      -0.164600
     16 C9          -1.4300    -1.2040     1.9630 cd         1 MOC      -0.077300
     17 C9A         -0.3740    -0.6300     1.3270 cc         1 MOC      -0.086600
     18 C10         -2.8100    -1.4030     1.3920 c3         1 MOC       0.243700
     19 O10         -3.6290    -0.2420     1.6900 os         1 MOC      -0.429900
     20 C11         -4.9100    -0.1980     1.2760 c          1 MOC       0.583100
     21 O11         -5.3800    -1.1280     0.6530 o          1 MOC      -0.397000
     22 N12         -5.6700     0.8810     1.5530 nz         1 MOC      -0.649400
     23 H11         -0.3770     1.0140    -0.0560 hc         1 MOC       0.101700
     24 H12         -0.3770    -0.5980    -0.8210 hc         1 MOC       0.101700
     25 H2           1.9280    -0.8970    -0.4710 hx         1 MOC       0.158700
     26 HN21         3.0680     1.2210    -0.5710 hn         1 MOC       0.474467
     27 HN22         1.6910     2.0190    -0.2010 hn         1 MOC       0.474467
     28 H31          2.7520    -0.5850     1.7040 h1         1 MOC       0.111700
     29 H32          1.9870     1.0160     1.8640 h1         1 MOC       0.111700
     30 HM61         2.1910    -2.0280     6.8790 hc         1 MOC       0.103367
     31 HM62         1.1860    -3.4500     7.1900 hc         1 MOC       0.103367
     32 HM63         0.6990    -1.8690     7.8150 hc         1 MOC       0.103367
     33 HN71        -2.4640    -3.2740     6.4920 hn         1 MOC       0.476800
     34 HN72        -1.4510    -2.4970     7.5110 hn         1 MOC       0.476800
     35 H101        -3.2600    -2.2840     1.8340 h1         1 MOC       0.098200
     36 H102        -2.7430    -1.5320     0.3190 h1         1 MOC       0.098200
     37 H121        -5.3960     1.2650     2.4350 hn         1 MOC       0.499467
     38 H122        -5.5470     1.5680     0.8360 hn         1 MOC       0.499467
     39 H23          1.8160     1.2040    -1.6160 hn         1 MOC       0.474467
     40 H73         -1.0260    -3.9490     6.9280 hn         1 MOC       0.476800
     41 H123        -6.6330     0.6090     1.5920 hn         1 MOC       0.499467
@<TRIPOS>BOND
     1     1     2 1
     2     1    17 1
     3     1    23 1
     4     1    24 1
     5     2     3 1
     6     2     4 1
     7     2    25 1
     8     3    26 1
     9     3    27 1
    10     4     5 1
    11     4    28 1
    12     4    29 1
    13     5     6 1
    14     5    17 1
    15     6     7 1
    16     6    15 2
    17     7     8 2
    18     7     9 1
    19     9    10 1
    20     9    11 2
    21    10    30 1
    22    10    31 1
    23    10    32 1
    24    11    12 1
    25    11    13 1
    26    12    33 1
    27    12    34 1
    28    13    14 2
    29    13    15 1
    30    15    16 1
    31    16    17 2
    32    16    18 1
    33    18    19 1
    34    18    35 1
    35    18    36 1
    36    19    20 1
    37    20    21 2
    38    20    22 1
    39    22    37 1
    40    22    38 1
    41    39     3 1
    42    40    12 1
    43    41    22 1
@<TRIPOS>SUBSTRUCTURE
     1 MOC         1 TEMP              0 ****  ****    0 ROOT
