@<TRIPOS>MOLECULE
MOE
   12    11     1     0     0
SMALL
bcc


@<TRIPOS>ATOM
      1 O2'         0.8560    1.1380   -0.4780 o         1 MOE     -0.904500
      2 CA'         1.2560   -0.0190   -0.0020 c3        1 MOE      0.427100
      3 CB'         1.6350    0.0850    1.5130 c3        1 MOE      0.042400
      4 OC'         2.0600   -1.2010    1.9730 os        1 MOE     -0.427600
      5 CD'         2.4220   -1.1970    3.3340 c3        1 MOE      0.127700
      6 HA'1        2.1830   -0.4490   -0.5140 h1        1 MOE     -0.121300
      7 HA'2        0.4750   -0.8510   -0.0590 h1        1 MOE     -0.121300
      8 HB'1        2.4670    0.8210    1.6570 h1        1 MOE     -0.008300
      9 HB'2        0.7500    0.4170    2.1140 h1        1 MOE     -0.008300
     10 HD'1        3.2750   -0.4960    3.5230 h1        1 MOE     -0.001633
     11 HD'2        1.5580   -0.9000    3.9820 h1        1 MOE     -0.001633
     12 HD'3        2.7310   -2.2470    3.5670 h1        1 MOE     -0.001633
@<TRIPOS>BOND
     1    1    2 1   
     2    2    3 1   
     3    2    6 1   
     4    2    7 1   
     5    3    4 1   
     6    3    8 1   
     7    3    9 1   
     8    4    5 1   
     9    5   10 1   
    10    5   11 1   
    11    5   12 1   
@<TRIPOS>SUBSTRUCTURE
     1 MOE         1 TEMP              0 ****  ****    0 ROOT
