@<TRIPOS>MOLECULE
molecule
   12    11     1     0     0
SMALL
bcc


@<TRIPOS>ATOM
      1 O2'          0.0000     0.0000     0.0000 o          1 MOE      -0.965500
      2 CA'          1.4290     0.0000     0.0000 c3         1 MOE       0.315100
      3 CB'          1.9390     0.0000     1.4430 c3         1 MOE       0.091400
      4 OC'          1.5600    -1.2220     2.0810 os         1 MOE      -0.375600
      5 CD'          2.0630    -1.1620     3.4180 c3         1 MOE       0.113700
      6 HA'1         1.7900    -0.8840    -0.5110 h1         1 MOE      -0.070300
      7 HA'2         1.7900     0.8850    -0.5110 h1         1 MOE      -0.070300
      8 HB'1         1.5080     0.8370     1.9790 h1         1 MOE      -0.020800
      9 HB'2         3.0190     0.0880     1.4440 h1         1 MOE      -0.020800
     10 HD'1         1.7990    -2.0720     3.9440 h1         1 MOE       0.001367
     11 HD'2         3.1410    -1.0590     3.3940 h1         1 MOE       0.001367
     12 HD'3         1.6300    -0.3110     3.9290 h1         1 MOE       0.001367
@<TRIPOS>BOND
     1     1     2 1
     2     2     3 1
     3     2     6 1
     4     2     7 1
     5     3     4 1
     6     3     8 1
     7     3     9 1
     8     4     5 1
     9     5    10 1
    10     5    11 1
    11     5    12 1
@<TRIPOS>SUBSTRUCTURE
     1 MOE         1 TEMP              0 ****  ****    0 ROOT
