@<TRIPOS>MOLECULE
MOG
   18    19     1     0     0
SMALL
bcc


@<TRIPOS>ATOM
      1 N1         -0.0150   -0.1120   -0.0110 n         1 MOG     -0.509400
      2 C2          1.3820    0.0600    0.0190 cc        1 MOG      0.700800
      3 N3          2.1270    0.1250    1.1650 nd        1 MOG     -0.731700
      4 C4          1.3690    0.0640    2.3020 cd        1 MOG      0.461400
      5 C5         -0.0460   -0.0860    2.3890 cc        1 MOG      0.083500
      6 C6         -0.8160   -0.1780    1.1680 c         1 MOG      0.653000
      7 O6         -2.0380   -0.3090    1.0230 o         1 MOG     -0.589500
      8 N7         -0.4330   -0.1120    3.7350 nc        1 MOG     -0.580000
      9 C8          0.6980    0.0150    4.4240 cd        1 MOG      0.475700
     10 O9          1.8670    0.1290    3.5960 os        1 MOG     -0.358800
     11 C10         0.9740    0.0580    5.8710 c3        1 MOG     -0.123400
     12 N2          2.0460    0.2290   -1.2040 nh        1 MOG     -0.903800
     13 HN1        -0.5000   -0.1230   -0.8830 hn        1 MOG      0.336500
     14 H101        2.0710    0.1880    6.0460 hc        1 MOG      0.071700
     15 H102        0.4220    0.9140    6.3350 hc        1 MOG      0.071700
     16 H103        0.6340   -0.8940    6.3490 hc        1 MOG      0.071700
     17 HN21        1.6480   -0.2040   -2.0040 hn        1 MOG      0.435300
     18 HN22        3.0420    0.2350   -1.1650 hn        1 MOG      0.435300
@<TRIPOS>BOND
     1    1    2 1
     2    1    6 1
     3    1   13 1
     4    2    3 2
     5    2   12 1
     6    3    4 1
     7    4    5 2
     8    4   10 1
     9    5    6 1
    10    5    8 1
    11    6    7 2
    12    8    9 2
    13    9   10 1
    14    9   11 1
    15   11   14 1
    16   11   15 1
    17   11   16 1
    18   12   17 1
    19   12   18 1
@<TRIPOS>SUBSTRUCTURE
     1 MOG         1 TEMP              0 ****  ****    0 ROOT
