@<TRIPOS>MOLECULE
MOH
    6     5     1     0     0
SMALL
bcc


@<TRIPOS>ATOM
      1 C           0.0080   -0.0150    0.0080 c3        1 MOH      0.116700
      2 O           1.4180    0.0260   -0.0120 oh        1 MOH     -0.598800
      3 H1         -0.3770   -0.0100    1.0580 h1        1 MOH      0.028700
      4 H2         -0.3730   -0.9200   -0.5280 h1        1 MOH      0.028700
      5 H3         -0.3190    0.9130   -0.5250 h1        1 MOH      0.028700
      6 HO          1.7320   -0.7640    0.4420 ho        1 MOH      0.396000
@<TRIPOS>BOND
     1    1    2 1   
     2    1    3 1   
     3    1    4 1   
     4    1    5 1   
     5    2    6 1   
@<TRIPOS>SUBSTRUCTURE
     1 MOH         1 TEMP              0 ****  ****    0 ROOT
