@<TRIPOS>MOLECULE
molecule
    6     5     1     0     0
SMALL
bcc


@<TRIPOS>ATOM
      1 C            0.0000     0.0000     0.0000 c3         1 MOH       0.130700
      2 O            1.4290     0.0000     0.0000 oh         1 MOH      -0.610800
      3 H1          -0.3610     0.0000     1.0210 h1         1 MOH       0.026700
      4 H2          -0.3610    -0.8850    -0.5110 h1         1 MOH       0.026700
      5 H3          -0.3610     0.8850    -0.5110 h1         1 MOH       0.026700
      6 HO           1.7440     0.7700     0.4440 ho         1 MOH       0.399000
@<TRIPOS>BOND
     1     1     2 1
     2     1     3 1
     3     1     4 1
     4     1     5 1
     5     2     6 1
@<TRIPOS>SUBSTRUCTURE
     1 MOH         1 TEMP              0 ****  ****    0 ROOT
