@<TRIPOS>MOLECULE
MOI
   40    44     1     0     0
SMALL
bcc


@<TRIPOS>ATOM
      1 C1           0.0000     0.0000     0.0000 ca         1 MOI      -0.123000
      2 C2           2.2500    -0.0210    -1.2160 c3         1 MOI      -0.007100
      3 C3           1.3830     0.0000     0.0000 ca         1 MOI      -0.034300
      4 C4           1.9770     0.0000     1.2380 ca         1 MOI      -0.184300
      5 C5           3.4540     0.0360     1.5350 c3         1 MOI      -0.036700
      6 C6           4.1720    -0.6160     0.3770 c3         1 MOI       0.015500
      7 C7           3.8900     1.5030     1.6100 c3         1 MOI      -0.006400
      8 C8           3.5060     2.1480     0.2700 c3         1 MOI       0.123800
      9 C9           3.6660     2.1180    -2.0760 c3         1 MOI       0.160100
     10 C10         -0.6950    -0.0310     1.1990 ca         1 MOI      -0.113000
     11 C11         -0.0750    -0.0850     2.4450 ca         1 MOI       0.101100
     12 C12          1.3230    -0.0900     2.4590 ca         1 MOI       0.167100
     13 C13          3.4820    -0.6750     2.8800 c3         1 MOI       0.187100
     14 C14          3.2220    -2.1760     2.7060 c3         1 MOI       0.215300
     15 C15          3.6220    -2.7420     1.4210 c2         1 MOI      -0.184200
     16 C16          4.0220    -2.0920     0.3760 c2         1 MOI      -0.104200
     17 C17          3.7320     0.0740    -0.9050 c3         1 MOI       0.140500
     18 N1           4.1630     1.4770    -0.8520 n3         1 MOI      -0.523600
     19 O1          -0.7980    -0.1310     3.5970 oh         1 MOI      -0.482100
     20 O2           1.8120    -2.3500     2.8570 oh         1 MOI      -0.561800
     21 O3           2.2280    -0.1600     3.4620 os         1 MOI      -0.275900
     22 H1          -0.5410     0.0420    -0.9380 ha         1 MOI       0.104000
     23 H21          1.9760     0.8140    -1.8500 hc         1 MOI       0.035700
     24 H22          2.0680    -0.9450    -1.7530 hc         1 MOI       0.035700
     25 H6           5.2280    -0.4080     0.5010 hc         1 MOI       0.046700
     26 H71          3.3720     2.0000     2.4210 hc         1 MOI       0.027700
     27 H72          4.9620     1.5620     1.7550 hc         1 MOI       0.027700
     28 H81          2.4330     2.0830     0.1410 h1         1 MOI       0.023700
     29 H82          3.8040     3.1890     0.2820 h1         1 MOI       0.023700
     30 H91          2.6510     2.4610    -1.9180 h1         1 MOI       0.008033
     31 H92          4.2980     2.9620    -2.3240 h1         1 MOI       0.008033
     32 H93          3.6830     1.4040    -2.8900 h1         1 MOI       0.008033
     33 H10         -1.7780    -0.0130     1.1650 ha         1 MOI       0.104000
     34 H13          4.3570    -0.4460     3.4770 h1         1 MOI       0.055700
     35 H14          3.7330    -2.7120     3.4970 h1         1 MOI       0.005700
     36 H15          3.5800    -3.8210     1.3340 ha         1 MOI       0.097000
     37 H16          4.2580    -2.6430    -0.5270 ha         1 MOI       0.102000
     38 H17          4.2640    -0.3980    -1.7230 h1         1 MOI       0.031700
     39 HO1         -1.1430     0.7260     3.7860 ho         1 MOI       0.393000
     40 HO2          1.6420    -3.1610     3.3070 ho         1 MOI       0.387000
@<TRIPOS>BOND
     1     1     3 ar  
     2     1    10 ar  
     3     1    22 1   
     4     2     3 1   
     5     2    17 1   
     6     2    23 1   
     7     2    24 1   
     8     3     4 ar  
     9     4     5 1   
    10     4    12 ar  
    11     5     6 1   
    12     5     7 1   
    13     5    13 1   
    14     6    16 1   
    15     6    17 1   
    16     6    25 1   
    17     7     8 1   
    18     7    26 1   
    19     7    27 1   
    20     8    18 1   
    21     8    28 1   
    22     8    29 1   
    23     9    18 1   
    24     9    30 1   
    25     9    31 1   
    26     9    32 1   
    27    10    11 ar  
    28    10    33 1   
    29    11    12 ar  
    30    11    19 1   
    31    12    21 1   
    32    13    14 1   
    33    13    21 1   
    34    13    34 1   
    35    14    15 1   
    36    14    20 1   
    37    14    35 1   
    38    15    16 2   
    39    15    36 1   
    40    16    37 1   
    41    17    18 1   
    42    17    38 1   
    43    19    39 1   
    44    20    40 1   
@<TRIPOS>SUBSTRUCTURE
     1 MOI         1 TEMP              0 ****  ****    0 ROOT
