@<TRIPOS>MOLECULE
molecule
   45    48     1     0     0
SMALL
bcc


@<TRIPOS>ATOM
      1 F23          0.0000     0.0000     0.0000 f          1 MOJ      -0.137900
      2 C14          1.3510     0.0000     0.0000 ca         1 MOJ       0.135900
      3 C13          2.0420     0.0000     1.1980 ca         1 MOJ      -0.155000
      4 C12          3.4350    -0.0000     1.1950 cp         1 MOJ      -0.004000
      5 C17          4.1810    -0.0010     2.4780 cp         1 MOJ      -0.172300
      6 C22          5.2040    -0.9200     2.7010 ca         1 MOJ       0.429200
      7 N21          5.8680    -0.9220     3.8390 nb         1 MOJ      -0.686000
      8 C20          5.5960    -0.0650     4.8050 ca         1 MOJ       0.423200
      9 C19          4.5950     0.8780     4.6590 ca         1 MOJ      -0.253300
     10 C18          3.8730     0.9240     3.4800 ca         1 MOJ      -0.078000
     11 C15          2.0430    -0.0050    -1.2000 ca         1 MOJ      -0.162000
     12 C16          3.4260    -0.0060    -1.2060 ca         1 MOJ      -0.098000
     13 C11          4.1250     0.0010    -0.0160 ca         1 MOJ      -0.085300
     14 C9           5.6310     0.0020    -0.0240 c3         1 MOJ      -0.037400
     15 C8           6.1370     1.2550    -0.7510 c3         1 MOJ      -0.141700
     16 C7           7.6490     1.2600    -0.6460 ce         1 MOJ       0.445900
     17 N24          8.3010     2.3470    -0.3860 n2         1 MOJ      -0.448200
     18 O25          7.6020     3.5640    -0.1940 oh         1 MOJ      -0.390500
     19 C2           8.3510    -0.0230    -0.8510 ca         1 MOJ      -0.396500
     20 C10          6.1360    -1.2440    -0.7470 c3         1 MOJ      -0.126700
     21 C3           7.6310    -1.2190    -0.8960 ca         1 MOJ       0.504600
     22 N4           8.2960    -2.3500    -1.0760 nb         1 MOJ      -0.762000
     23 C5           9.6140    -2.3480    -1.2140 ca         1 MOJ       0.951900
     24 N27         10.2670    -3.5510    -1.4000 nv         1 MOJ      -1.054500
     25 N6          10.3280    -1.2310    -1.1780 nb         1 MOJ      -0.760000
     26 C1           9.7390    -0.0590    -1.0010 ca         1 MOJ       0.515600
     27 C26         10.5500     1.2090    -0.9610 c3         1 MOJ      -0.139400
     28 H13          1.5020    -0.0700     2.1340 ha         1 MOJ       0.152000
     29 H22          5.4560    -1.6400     1.9320 h4         1 MOJ       0.032100
     30 H20          6.1640    -0.1010     5.7260 h4         1 MOJ       0.025100
     31 H19          4.3830     1.5780     5.4580 ha         1 MOJ       0.141000
     32 H18          3.0840     1.6530     3.3390 ha         1 MOJ       0.145000
     33 H15          1.5000    -0.0100    -2.1360 ha         1 MOJ       0.148000
     34 H16          3.9620    -0.0070    -2.1470 ha         1 MOJ       0.140000
     35 H9           6.0030     0.0020     0.9930 hc         1 MOJ       0.082700
     36 H8           5.7430     2.1360    -0.2580 hc         1 MOJ       0.075200
     37 H8A          5.8530     1.2000    -1.7950 hc         1 MOJ       0.075200
     38 HO25         8.2190     4.2630    -0.0540 ho         1 MOJ       0.429000
     39 H10          5.6930    -1.2700    -1.7350 hc         1 MOJ       0.074200
     40 H10A         5.8650    -2.1140    -0.1610 hc         1 MOJ       0.074200
     41 HN27        10.2200    -4.0140    -2.2860 hn         1 MOJ       0.447300
     42 HN2A        10.7870    -3.9590    -0.6490 hn         1 MOJ       0.447300
     43 H26         10.5420     1.6120     0.0450 hc         1 MOJ       0.064367
     44 H26A        11.5710     0.9950    -1.2550 hc         1 MOJ       0.064367
     45 H26B        10.1230     1.9330    -1.6430 hc         1 MOJ       0.064367
@<TRIPOS>BOND
     1     1     2 1
     2    11     2 ar
     3     2     3 ar
     4     3     4 ar
     5     3    28 1
     6     4    13 ar
     7     4     5 1
     8    10     5 ar
     9     5     6 ar
    10     6     7 ar
    11     6    29 1
    12     8     7 ar
    13     9     8 ar
    14     8    30 1
    15    10     9 ar
    16     9    31 1
    17    10    32 1
    18    11    12 ar
    19    11    33 1
    20    12    13 ar
    21    12    34 1
    22    13    14 1
    23    20    14 1
    24    14    15 1
    25    14    35 1
    26    15    16 1
    27    15    36 1
    28    15    37 1
    29    19    16 1
    30    16    17 2
    31    17    18 1
    32    18    38 1
    33    21    19 ar
    34    19    26 ar
    35    20    21 1
    36    20    39 1
    37    20    40 1
    38    22    21 ar
    39    22    23 ar
    40    24    23 1
    41    23    25 ar
    42    24    41 1
    43    24    42 1
    44    25    26 ar
    45    26    27 1
    46    27    43 1
    47    27    44 1
    48    27    45 1
@<TRIPOS>SUBSTRUCTURE
     1 MOJ         1 TEMP              0 ****  ****    0 ROOT
