@<TRIPOS>MOLECULE
MOK
   23    24     1     0     0
SMALL
bcc


@<TRIPOS>ATOM
      1 C1          0.0380   -0.1460   -0.0460 c3        1 MOK     -0.129400
      2 C2          1.4870   -0.0530    0.1020 cc        1 MOK      0.233000
      3 C3          2.3430   -0.0190    1.1880 cd        1 MOK     -0.301200
      4 C4          1.8810   -0.0520    2.6240 c         1 MOK      0.936200
      5 O5          2.3010    0.8290    3.4250 o         1 MOK     -0.821800
      6 O6          1.0410   -0.9430    2.9330 o         1 MOK     -0.821800
      7 C7          3.6790    0.0370    0.5770 cd        1 MOK      0.379800
      8 N8          3.5420    0.0460   -0.7740 nc        1 MOK     -0.414300
      9 O9          2.2680    0.0000   -1.0860 os        1 MOK     -0.154100
     10 C10         4.9750    0.0550    1.2440 ca        1 MOK     -0.112500
     11 C11         5.1340    0.7040    2.4770 ca        1 MOK     -0.101500
     12 C12         6.3840    0.7260    3.0950 ca        1 MOK     -0.154500
     13 C13         7.4810    0.1060    2.4970 ca        1 MOK     -0.140000
     14 C14         7.3260   -0.5430    1.2730 ca        1 MOK     -0.154500
     15 C15         6.0810   -0.5710    0.6480 ca        1 MOK     -0.101500
     16 H1         -0.3920   -0.4580    0.9440 hc        1 MOK      0.055700
     17 H2         -0.2330   -0.9000   -0.8250 hc        1 MOK      0.055700
     18 H3         -0.3930    0.8420   -0.3430 hc        1 MOK      0.055700
     19 H5          4.2540    1.1730    2.9630 ha        1 MOK      0.173500
     20 H6          6.4980    1.2320    4.0640 ha        1 MOK      0.117500
     21 H7          8.4630    0.1260    2.9890 ha        1 MOK      0.110000
     22 H8          8.1850   -1.0370    0.8000 ha        1 MOK      0.117500
     23 H9          5.9680   -1.0880   -0.3170 ha        1 MOK      0.173500
@<TRIPOS>BOND
     1    1    2 1
     2    1   16 1
     3    1   17 1
     4    1   18 1
     5    2    3 2
     6    2    9 1
     7    3    4 1
     8    3    7 1
     9    4    5 1
    10    4    6 1
    11    7    8 2
    12    7   10 1
    13    8    9 1
    14   10   11 ar
    15   10   15 ar
    16   11   12 ar
    17   11   19 1
    18   12   13 ar
    19   12   20 1
    20   13   14 ar
    21   13   21 1
    22   14   15 ar
    23   14   22 1
    24   15   23 1
@<TRIPOS>SUBSTRUCTURE
     1 MOK         1 TEMP              0 ****  ****    0 ROOT
