@<TRIPOS>MOLECULE
molecule
   40    42     1     0     0
SMALL
bcc


@<TRIPOS>ATOM
      1 C1           0.0000     0.0000     0.0000 ca         1 MOL      -0.164300
      2 C2           1.3820     0.0000     0.0000 ca         1 MOL      -0.102000
      3 C3           2.0740     0.0000     1.1950 ca         1 MOL      -0.119000
      4 C4           1.3840     0.0010     2.3930 ca         1 MOL      -0.094000
      5 C5           0.0030     0.0010     2.3940 ca         1 MOL      -0.119000
      6 C6          -0.6900     0.0050     1.1970 ca         1 MOL      -0.102000
      7 N1           0.2700    -2.1390    -1.9240 nz         1 MOL      -0.797600
      8 N2          -2.7870    -3.0290    -1.0790 n          1 MOL      -0.354200
      9 N3          -3.2780    -3.2580    -2.3310 n3         1 MOL      -0.391600
     10 C7          -0.7540     0.0000    -1.3040 c3         1 MOL      -0.027100
     11 C8          -1.8380    -2.1540    -0.7050 c          1 MOL       0.675500
     12 C9          -1.0090    -1.4420    -1.7460 c3         1 MOL       0.039200
     13 C10         -1.7890    -1.4470    -3.0660 c3         1 MOL      -0.107400
     14 C11         -2.2940    -2.8670    -3.3290 c3         1 MOL       0.103800
     15 C12         -3.4520    -4.7280    -2.4420 c3         1 MOL       0.101800
     16 C13         -3.9680    -5.1190    -1.0350 c3         1 MOL      -0.078400
     17 C14         -3.5110    -3.9310    -0.1580 c3         1 MOL      -0.036300
     18 C15         -2.5930    -4.4110     0.9370 c          1 MOL       0.569900
     19 O2          -2.8800    -4.2160     2.0940 o          1 MOL      -0.433100
     20 H2           1.9230    -0.0020    -0.9380 ha         1 MOL       0.129000
     21 H3           3.1570    -0.0000     1.1940 ha         1 MOL       0.150000
     22 H4           1.9260    -0.0010     3.3310 ha         1 MOL       0.152000
     23 H5          -0.5380     0.0030     3.3330 ha         1 MOL       0.150000
     24 H6          -1.7730     0.0050     1.1980 ha         1 MOL       0.129000
     25 HN11         0.6060    -2.4520    -1.0350 hn         1 MOL       0.458133
     26 HN12         0.1400    -2.9260    -2.5280 hn         1 MOL       0.458133
     27 H71         -1.7000     0.5110    -1.1740 hc         1 MOL       0.090200
     28 H72         -0.1690     0.5110    -2.0590 hc         1 MOL       0.090200
     29 H101        -2.6320    -0.7710    -2.9920 hc         1 MOL       0.099200
     30 H102        -1.1370    -1.1380    -3.8740 hc         1 MOL       0.099200
     31 H111        -2.7490    -2.9050    -4.3110 h1         1 MOL       0.057200
     32 H112        -1.4570    -3.5540    -3.2910 h1         1 MOL       0.057200
     33 H121        -2.5050    -5.2100    -2.6500 h1         1 MOL       0.071200
     34 H122        -4.1890    -4.9690    -3.1990 h1         1 MOL       0.071200
     35 H131        -3.4010    -5.9860    -0.7180 hc         1 MOL       0.090200
     36 H132        -5.0500    -5.0890    -1.0730 hc         1 MOL       0.090200
     37 H14         -4.3720    -3.4240     0.2610 h1         1 MOL       0.112700
     38 H15         -1.8080    -5.0150     0.4980 h4         1 MOL      -0.006800
     39 H13          0.9110    -1.5410    -2.4060 hn         1 MOL       0.458133
     40 O1          -1.6460    -1.9370     0.4720 o          1 MOL      -0.570500
@<TRIPOS>BOND
     1     1     2 ar
     2     1     6 ar
     3     1    10 1
     4     2     3 ar
     5     2    20 1
     6     3     4 ar
     7     3    21 1
     8     4     5 ar
     9     4    22 1
    10     5     6 ar
    11     5    23 1
    12     6    24 1
    13     7    12 1
    14     7    25 1
    15     7    26 1
    16     8     9 1
    17     8    11 1
    18     8    17 1
    19     9    14 1
    20     9    15 1
    21    40    11 2
    22    10    12 1
    23    10    27 1
    24    10    28 1
    25    11    12 1
    26    12    13 1
    27    13    14 1
    28    13    29 1
    29    13    30 1
    30    14    31 1
    31    14    32 1
    32    15    16 1
    33    15    33 1
    34    15    34 1
    35    16    17 1
    36    16    35 1
    37    16    36 1
    38    17    18 1
    39    17    37 1
    40    18    19 2
    41    18    38 1
    42    39     7 1
@<TRIPOS>SUBSTRUCTURE
     1 MOL         1 TEMP              0 ****  ****    0 ROOT
