@<TRIPOS>MOLECULE
molecule
   62    65     1     0     0
SMALL
bcc


@<TRIPOS>ATOM
      1 C1           0.0000     0.0000     0.0000 ca         1 MON       0.921900
      2 N2          -0.6910    -0.0070    -1.1960 nh         1 MON      -0.640300
      3 N3           1.3280     0.0000     0.0000 nb         1 MON      -0.862000
      4 N4          -0.6640     0.0110     1.1510 nb         1 MON      -0.849000
      5 C5          -2.1190     0.0010    -0.8570 c3         1 MON       0.153300
      6 C6          -0.4110    -1.2960    -1.8370 c3         1 MON       0.153300
      7 C7           1.9940     0.0000     1.1510 ca         1 MON       0.989900
      8 C8           0.0010     0.0160     2.3020 ca         1 MON       0.870300
      9 C9          -2.9500    -0.1280    -2.1340 c3         1 MON       0.141800
     10 C10         -1.2420    -1.4260    -3.1140 c3         1 MON       0.141800
     11 N11          1.3290     0.0110     2.3020 nb         1 MON      -0.882000
     12 N12          3.3740    -0.0050     1.1500 nu         1 MON      -0.892900
     13 S13         -0.8800     0.0320     3.8280 ss         1 MON      -0.243400
     14 N14         -2.6710    -1.4190    -2.7760 n7         1 MON      -0.804200
     15 C15          4.1070     0.0020     2.4190 c3         1 MON       0.248800
     16 C16          0.5070     0.0350     4.9910 c3         1 MON      -0.011300
     17 C17          5.6110    -0.0060     2.1380 c3         1 MON      -0.054100
     18 C18         -0.0290     0.0470     6.4230 c3         1 MON      -0.070400
     19 C19          6.3660     0.0020     3.4420 ca         1 MON      -0.096300
     20 C20          1.1440     0.0500     7.4070 c3         1 MON      -0.032100
     21 C21          6.7060    -1.1920     4.0490 ca         1 MON      -0.109000
     22 C22          6.7150     1.2030     4.0310 ca         1 MON      -0.109000
     23 C23          0.6150     0.0640     8.8180 ca         1 MON      -0.082300
     24 C24          7.3970    -1.1890     5.2440 ca         1 MON      -0.150000
     25 C25          7.4020     1.2120     5.2290 ca         1 MON      -0.150000
     26 C26          0.3680    -1.1270     9.4750 ca         1 MON      -0.116000
     27 C27          0.3830     1.2670     9.4580 ca         1 MON      -0.116000
     28 C28          7.7500     0.0150     5.8370 ca         1 MON       0.107100
     29 C29         -0.1150    -1.1170    10.7690 ca         1 MON      -0.119000
     30 C30         -0.1050     1.2790    10.7510 ca         1 MON      -0.119000
     31 O31          8.4300     0.0210     7.0130 oh         1 MON      -0.521100
     32 C32         -0.3530     0.0870    11.4090 ca         1 MON       0.026400
     33 Cl33        -0.9610     0.1020    13.0340 cl         1 MON      -0.110400
     34 H51         -2.3650     0.9320    -0.3620 h1         1 MON       0.065700
     35 H52         -2.3370    -0.8320    -0.2010 h1         1 MON       0.065700
     36 H61          0.6420    -1.3520    -2.0860 h1         1 MON       0.065700
     37 H62         -0.6690    -2.0990    -1.1570 h1         1 MON       0.065700
     38 H91         -2.6910     0.6750    -2.8140 h1         1 MON       0.042950
     39 H92         -4.0030    -0.0710    -1.8850 h1         1 MON       0.042950
     40 H101        -1.0240    -0.5920    -3.7700 h1         1 MON       0.042950
     41 H102        -0.9950    -2.3560    -3.6100 h1         1 MON       0.042950
     42 H12          3.8740     0.0050     0.2830 hn         1 MON       0.460800
     43 H14         -3.2120    -1.4980    -3.6150 hn         1 MON       0.353800
     44 H151         3.8430    -0.8780     2.9930 h1         1 MON       0.055700
     45 H152         3.8490     0.8910     2.9810 h1         1 MON       0.055700
     46 H161         1.1080    -0.8530     4.8380 h1         1 MON       0.076700
     47 H162         1.1150     0.9160     4.8250 h1         1 MON       0.076700
     48 H171         5.8690    -0.8950     1.5770 hc         1 MON       0.054700
     49 H172         5.8760     0.8730     1.5630 hc         1 MON       0.054700
     50 H181        -0.6370    -0.8340     6.5890 hc         1 MON       0.056700
     51 H182        -0.6310     0.9350     6.5760 hc         1 MON       0.056700
     52 H201         1.7520     0.9310     7.2400 hc         1 MON       0.053700
     53 H202         1.7450    -0.8380     7.2550 hc         1 MON       0.053700
     54 H21          6.4310    -2.1320     3.5850 ha         1 MON       0.135500
     55 H22          6.4430     2.1380     3.5560 ha         1 MON       0.135500
     56 H24          7.6660    -2.1260     5.7180 ha         1 MON       0.142500
     57 H25          7.6750     2.1530     5.6900 ha         1 MON       0.142500
     58 H26          0.5540    -2.0700     8.9740 ha         1 MON       0.137500
     59 H27          0.5770     2.2000     8.9440 ha         1 MON       0.137500
     60 H29         -0.3090    -2.0510    11.2830 ha         1 MON       0.144000
     61 H30         -0.2890     2.2220    11.2510 ha         1 MON       0.144000
     62 H31          9.3570     0.0180     6.8410 ho         1 MON       0.421000
@<TRIPOS>BOND
     1     1     2 1
     2     1     3 ar
     3     1     4 ar
     4     2     5 1
     5     2     6 1
     6     3     7 ar
     7     4     8 ar
     8     5     9 1
     9     5    34 1
    10     5    35 1
    11     6    10 1
    12     6    36 1
    13     6    37 1
    14     7    11 ar
    15     7    12 1
    16     8    11 ar
    17     8    13 1
    18     9    14 1
    19     9    38 1
    20     9    39 1
    21    10    14 1
    22    10    40 1
    23    10    41 1
    24    12    15 1
    25    12    42 1
    26    13    16 1
    27    14    43 1
    28    15    17 1
    29    15    44 1
    30    15    45 1
    31    16    18 1
    32    16    46 1
    33    16    47 1
    34    17    19 1
    35    17    48 1
    36    17    49 1
    37    18    20 1
    38    18    50 1
    39    18    51 1
    40    19    21 ar
    41    19    22 ar
    42    20    23 1
    43    20    52 1
    44    20    53 1
    45    21    24 ar
    46    21    54 1
    47    22    25 ar
    48    22    55 1
    49    23    26 ar
    50    23    27 ar
    51    24    28 ar
    52    24    56 1
    53    25    28 ar
    54    25    57 1
    55    26    29 ar
    56    26    58 1
    57    27    30 ar
    58    27    59 1
    59    28    31 1
    60    29    32 ar
    61    29    60 1
    62    30    32 ar
    63    30    61 1
    64    31    62 1
    65    32    33 1
@<TRIPOS>SUBSTRUCTURE
     1 MON         1 TEMP              0 ****  ****    0 ROOT
