@<TRIPOS>MOLECULE
MOP
   19    18     1     0     0
SMALL
bcc


@<TRIPOS>ATOM
      1 C1          0.1230    0.0420    0.0510 c         1 MOP      0.564900
      2 O1          1.3010   -0.3050   -0.0420 o         1 MOP     -0.528100
      3 C2         -0.6100    0.0990    1.3560 c3        1 MOP     -0.204400
      4 C3         -1.7150    1.1310    1.3290 c3        1 MOP     -0.073400
      5 C4         -2.4650    1.2020    2.6520 c3        1 MOP     -0.066700
      6 C5         -3.2620    2.4880    2.7270 c3        1 MOP     -0.091100
      7 CM4        -3.3810    0.0090    2.8340 c3        1 MOP     -0.091100
      8 H1         -0.4700    0.3260   -0.8470 h4        1 MOP     -0.006800
      9 H21         0.1110    0.3210    2.1880 hc        1 MOP      0.074200
     10 H22        -1.0370   -0.9220    1.5520 hc        1 MOP      0.074200
     11 H31        -2.4370    0.8940    0.5040 hc        1 MOP      0.043700
     12 H32        -1.2710    2.1370    1.1060 hc        1 MOP      0.043700
     13 H4         -1.7100    1.2030    3.4900 hc        1 MOP      0.049700
     14 H51        -3.9970    2.5430    1.8890 hc        1 MOP      0.035033
     15 H52        -3.8210    2.5400    3.6920 hc        1 MOP      0.035033
     16 H53        -2.5840    3.3730    2.6620 hc        1 MOP      0.035033
     17 HM41       -3.9180    0.0820    3.8100 hc        1 MOP      0.035033
     18 HM42       -4.1400   -0.0320    2.0160 hc        1 MOP      0.035033
     19 HM43       -2.7970   -0.9420    2.8230 hc        1 MOP      0.035033
@<TRIPOS>BOND
     1    1    2 2   
     2    1    3 1   
     3    1    8 1   
     4    3    4 1   
     5    3    9 1   
     6    3   10 1   
     7    4    5 1   
     8    4   11 1   
     9    4   12 1   
    10    5    6 1   
    11    5    7 1   
    12    5   13 1   
    13    6   14 1   
    14    6   15 1   
    15    6   16 1   
    16    7   17 1   
    17    7   18 1   
    18    7   19 1   
@<TRIPOS>SUBSTRUCTURE
     1 MOP         1 TEMP              0 ****  ****    0 ROOT
