@<TRIPOS>MOLECULE
molecule
   19    18     1     0     0
SMALL
bcc


@<TRIPOS>ATOM
      1 C1           0.0000     0.0000     0.0000 c          1 MOP       0.567900
      2 O1           1.2070     0.0000     0.0000 o          1 MOP      -0.522100
      3 C2          -0.7550     0.0000     1.3030 c3         1 MOP      -0.206400
      4 C3          -1.6340     1.2480     1.3840 c3         1 MOP      -0.069400
      5 C4          -2.4000     1.2460     2.7080 c3         1 MOP      -0.075700
      6 C5          -3.2800     2.4950     2.7890 c3         1 MOP      -0.089100
      7 CM4         -3.2790    -0.0020     2.7890 c3         1 MOP      -0.089100
      8 H1          -0.5410    -0.0180    -0.9380 h4         1 MOP      -0.007800
      9 H21         -1.3780    -0.8850     1.3600 hc         1 MOP       0.068200
     10 H22         -0.0520    -0.0000     2.1280 hc         1 MOP       0.068200
     11 H31         -2.3370     1.2480     0.5600 hc         1 MOP       0.045700
     12 H32         -1.0110     2.1320     1.3280 hc         1 MOP       0.045700
     13 H4          -1.6970     1.2470     3.5320 hc         1 MOP       0.052700
     14 H51         -2.6650     3.3790     2.6710 hc         1 MOP       0.035200
     15 H52         -4.0230     2.4650     2.0010 hc         1 MOP       0.035200
     16 H53         -3.7760     2.5260     3.7520 hc         1 MOP       0.035200
     17 HM41        -3.7020    -0.2100     1.8140 hc         1 MOP       0.035200
     18 HM42        -4.0780     0.1650     3.5020 hc         1 MOP       0.035200
     19 HM43        -2.6800    -0.8450     3.1100 hc         1 MOP       0.035200
@<TRIPOS>BOND
     1     1     2 2
     2     1     3 1
     3     1     8 1
     4     3     4 1
     5     3     9 1
     6     3    10 1
     7     4     5 1
     8     4    11 1
     9     4    12 1
    10     5     6 1
    11     5     7 1
    12     5    13 1
    13     6    14 1
    14     6    15 1
    15     6    16 1
    16     7    17 1
    17     7    18 1
    18     7    19 1
@<TRIPOS>SUBSTRUCTURE
     1 MOP         1 TEMP              0 ****  ****    0 ROOT
