@<TRIPOS>MOLECULE
MOR
   17    17     1     0     0
SMALL
bcc


@<TRIPOS>ATOM
      1 O1           0.0000     0.0000     0.0000 os         1 MOR      -0.436600
      2 C2           1.4290     0.0000     0.0000 c3         1 MOR       0.189400
      3 C3           1.9350     0.0000     1.4470 c3         1 MOR       0.029500
      4 N4           1.2820    -1.1060     2.1650 n          1 MOR      -0.234800
      5 C5          -0.1830    -1.2190     2.0780 c3         1 MOR       0.029500
      6 C6          -0.5850    -1.1580     0.6000 c3         1 MOR       0.189400
      7 C            2.0040    -1.9900     2.8830 c          1 MOR       0.989600
      8 O            3.2120    -1.8810     2.9430 o          1 MOR      -0.917300
      9 H21          1.7900    -0.8860    -0.5080 h1         1 MOR      -0.003800
     10 H22          1.7900     0.8860    -0.5080 h1         1 MOR      -0.003800
     11 H31          3.0080    -0.1430     1.4570 h1         1 MOR       0.023200
     12 H32          1.6820     0.9410     1.9200 h1         1 MOR       0.023200
     13 H51         -0.6430    -0.3970     2.6140 h1         1 MOR       0.023200
     14 H52         -0.5020    -2.1630     2.5030 h1         1 MOR       0.023200
     15 H61         -1.6630    -1.0990     0.5210 h1         1 MOR      -0.003800
     16 H62         -0.2270    -2.0460     0.0930 h1         1 MOR      -0.003800
     17 O3           1.3860    -2.9940     3.5330 o          1 MOR      -0.917300
@<TRIPOS>BOND
     1     1     2 1   
     2     1     6 1   
     3     2     3 1   
     4     2     9 1   
     5     2    10 1   
     6     3     4 1   
     7     3    11 1   
     8     3    12 1   
     9     4     5 1   
    10     4     7 1   
    11     5     6 1   
    12     5    13 1   
    13     5    14 1   
    14     6    15 1   
    15     6    16 1   
    16     7     8 1   
    17     7    17 1   
@<TRIPOS>SUBSTRUCTURE
     1 MOR         1 TEMP              0 ****  ****    0 ROOT
