@<TRIPOS>MOLECULE
MOT
   53    55     1     0     0
SMALL
bcc


@<TRIPOS>ATOM
      1 N1         -1.8580   -2.2920    0.0820 n2        1 MOT     -0.224000
      2 C2         -1.3760   -1.3340   -0.8280 c2        1 MOT      0.167000
      3 NA2        -1.1810   -1.7780   -2.1500 nh        1 MOT     -0.317000
      4 N3         -1.0160   -0.0340   -0.5490 n2        1 MOT     -0.297000
      5 C4         -1.1090    0.3880    0.7630 c2        1 MOT      0.226000
      6 NA4        -0.8200    1.6980    1.1010 nh        1 MOT     -0.335000
      7 C4A        -1.5680   -0.5080    1.7560 c2        1 MOT     -0.308000
      8 C6         -1.7770   -0.4130    3.2350 c3        1 MOT      0.004000
      9 C7         -2.2850   -1.8240    3.5620 c1        1 MOT      0.022000
     10 O8         -2.3300   -2.5800    2.4810 os        1 MOT     -0.069000
     11 C8A        -1.9080   -1.8190    1.3310 c2        1 MOT      0.099000
     12 C9         -0.5320   -0.1690    3.9640 c2        1 MOT     -0.747000
     13 N10        -0.5490   -0.0990    5.3830 n4        1 MOT      0.233000
     14 CM          0.5970   -0.8520    5.9690 c3        1 MOT     -0.156000
     15 C11        -0.2690    3.8000    7.3320 ca        1 MOT     -0.120000
     16 C12        -1.4530    3.3970    6.7660 ca        1 MOT     -0.055000
     17 C13        -1.6290    2.0560    6.1670 ca        1 MOT     -0.186000
     18 C14        -0.5360    1.2670    5.9120 ca        1 MOT     -0.079000
     19 C15         0.6650    2.1050    6.0790 ca        1 MOT     -0.186000
     20 C16         0.6850    2.6820    7.3320 ca        1 MOT     -0.055000
     21 O           0.8860    5.1170    8.9310 o         1 MOT     -0.425000
     22 N          -0.7700    6.1620    7.7420 n         1 MOT     -0.371000
     23 CA         -5.5480    6.9600    7.5820 c3        1 MOT     -0.211000
     24 CT         -4.0470    6.6840    7.5420 c2        1 MOT      0.329000
     25 O1         -3.2480    7.4380    8.1760 o         1 MOT     -0.598500
     26 O2         -3.6290    5.6840    6.8800 o         1 MOT     -0.598500
     27 CB         -5.8950    8.3470    7.0870 c3        1 MOT     -0.138000
     28 CG         -5.3860    9.4060    8.0140 cx        1 MOT     -0.009000
     29 CD         -5.8010   10.7920    7.8780 cu        1 MOT      0.267000
     30 OE1        -6.4150   10.0740    8.8710 os        1 MOT     -0.304000
     31 OE2        -5.9370   11.9440    7.5270 o         1 MOT     -0.276000
     32 HN21       -1.1440   -1.0620   -2.8390 hn        1 MOT      0.209500
     33 HN22       -1.7030   -2.5850   -2.4080 hn        1 MOT      0.209500
     34 HN41       -0.3070    2.2520    0.4580 hn        1 MOT      0.228500
     35 HN42       -0.6600    1.8550    2.0720 hn        1 MOT      0.228500
     36 H7         -2.5900    0.3310    3.4790 hc        1 MOT      0.090000
     37 H91        -1.4220   -0.5410    5.7070 hn        1 MOT      0.217000
     38 H92         0.4030    0.0660    3.4670 hx        1 MOT      0.153000
     39 HM1         1.5520   -0.3430    5.6800 hx        1 MOT      0.111333
     40 HM2         0.5000   -0.8690    7.0840 hx        1 MOT      0.111333
     41 HM3         0.5810   -1.8910    5.5520 hx        1 MOT      0.111333
     42 H12        -2.6620    1.7390    5.9640 ha        1 MOT      0.141500
     43 H13        -2.3600    4.0380    6.7940 ha        1 MOT      0.185500
     44 H15         0.9320    2.1940    8.2800 ha        1 MOT      0.185500
     45 H16         0.8550    2.7410    5.1930 ha        1 MOT      0.141500
     46 HN         -1.6400    6.0580    7.2480 hn        1 MOT      0.250000
     47 HA         -0.7430    6.9440    8.3580 hn        1 MOT      0.250000
     48 HB1        -6.0720    6.2030    6.9440 hc        1 MOT      0.084000
     49 HB2        -5.4250    8.5100    6.0800 hc        1 MOT      0.089000
     50 HG1        -7.0070    8.4420    6.9710 hc        1 MOT      0.089000
     51 HG2        -4.4450    9.1370    8.5550 h1        1 MOT      0.219000
     52 H2         -5.8990    6.8320    8.6380 hc        1 MOT      0.084000
     53 C          -0.0310    5.0620    8.0740 c2        1 MOT      0.328000
@<TRIPOS>BOND
     1    1    2 1   
     2    1   11 1   
     3    2    3 1   
     4    2    4 1   
     5    3   32 1   
     6    3   33 1   
     7    4    5 1   
     8    5    6 1   
     9    5    7 1   
    10    6   34 1   
    11    6   35 1   
    12    7    8 1   
    13    7   11 1   
    14    8    9 1   
    15    8   12 1   
    16    8   36 1   
    17    9   10 1   
    18   10   11 1   
    19   12   13 1   
    20   12   38 1   
    21   13   14 1   
    22   13   18 1   
    23   13   37 1   
    24   14   39 1   
    25   14   40 1   
    26   14   41 1   
    27   15   16 1   
    28   15   20 1   
    29   15   53 1   
    30   16   17 1   
    31   16   43 1   
    32   17   18 1   
    33   17   42 1   
    34   18   19 1   
    35   19   20 1   
    36   19   45 1   
    37   20   44 1   
    38   21   53 1   
    39   22   46 1   
    40   22   47 1   
    41   22   53 1   
    42   23   24 1   
    43   23   27 1   
    44   23   48 1   
    45   23   52 1   
    46   24   25 1   
    47   24   26 1   
    48   27   28 1   
    49   27   49 1   
    50   27   50 1   
    51   28   29 1   
    52   28   30 1   
    53   28   51 1   
    54   29   30 1   
    55   29   31 1   
@<TRIPOS>SUBSTRUCTURE
     1 MOT         1 TEMP              0 ****  ****    0 ROOT
