@<TRIPOS>MOLECULE
MOX
   46    47     1     0     0
SMALL
bcc


@<TRIPOS>ATOM
      1 C1          1.7280   -0.0330   -0.2540 c         1 MOX      0.566900
      2 O1          2.4010   -0.8270    0.3950 o         1 MOX     -0.502100
      3 C2          0.1990    0.0710   -0.1070 c3        1 MOX      0.225000
      4 N2         -0.2510   -0.0160    1.3300 n4        1 MOX     -0.707800
      5 C3         -0.2700    1.4500   -0.7600 c3        1 MOX      0.330300
      6 O4          0.1430    1.3290   -2.1290 os        1 MOX     -0.453600
      7 C5         -0.6970    1.9630   -3.0930 c3        1 MOX      0.176600
      8 C6         -2.1560    1.8280   -2.8130 ce        1 MOX     -0.270800
      9 C7         -2.5110    1.9130   -1.3800 ce        1 MOX      0.482600
     10 C8         -4.0020    2.2510   -1.0590 c         1 MOX      0.845300
     11 N8         -1.6430    1.7380   -0.4390 n2        1 MOX     -0.684900
     12 C9         -3.0710    1.6520   -3.7700 c2        1 MOX     -0.139000
     13 C21         0.2710    1.0430    2.2690 c         1 MOX      0.608100
     14 O21         1.1910    1.7430    1.8620 o         1 MOX     -0.495100
     15 C22        -0.3810    1.0080    3.6250 c3        1 MOX     -0.227400
     16 C23        -0.0780    2.2560    4.3770 ca        1 MOX     -0.103300
     17 C24        -0.9160    3.3680    4.2040 ca        1 MOX     -0.059500
     18 C25        -0.6730    4.5540    4.8900 ca        1 MOX     -0.196500
     19 C26         0.4220    4.6270    5.7620 ca        1 MOX      0.121100
     20 O26         0.7260    5.7710    6.4700 oh        1 MOX     -0.508100
     21 C27         1.2650    3.5220    5.9520 ca        1 MOX     -0.196500
     22 C28         1.0070    2.3440    5.2580 ca        1 MOX     -0.059500
     23 C29         0.0060   -0.3500    4.3390 c         1 MOX      0.935600
     24 O30         0.2650   -0.3390    5.5560 o         1 MOX     -0.784300
     25 O31        -0.0260   -1.3830    3.6020 o         1 MOX     -0.784300
     26 O61        -0.4440   -0.9420   -0.8630 os        1 MOX     -0.366600
     27 C62        -0.1700   -2.2890   -0.4920 c3        1 MOX      0.078700
     28 O81        -4.8140    1.3040   -1.2000 o         1 MOX     -0.787300
     29 O82        -4.2450    3.4340   -0.7330 o         1 MOX     -0.787300
     30 H1          2.1410    0.6510   -1.0260 h4        1 MOX      0.058200
     31 HN2         0.0450   -0.9320    1.7570 hn        1 MOX      0.490800
     32 H3          0.3820    2.2560   -0.2960 h2        1 MOX      0.081700
     33 H5         -0.4050    1.4680   -4.0590 h1        1 MOX      0.047200
     34 H5A        -0.4180    3.0530   -3.1290 h1        1 MOX      0.047200
     35 H9         -4.1430    1.5730   -3.5250 ha        1 MOX      0.129000
     36 H9A        -2.8020    1.5720   -4.8310 ha        1 MOX      0.129000
     37 H22        -1.5010    0.9330    3.4970 hc        1 MOX      0.100700
     38 H24        -1.7770    3.3090    3.5190 ha        1 MOX      0.157000
     39 H25        -1.3320    5.4210    4.7470 ha        1 MOX      0.137000
     40 HO26        0.0640    6.4390    6.2450 ho        1 MOX      0.412000
     41 H27         2.1110    3.5950    6.6480 ha        1 MOX      0.137000
     42 H28         1.6440    1.4580    5.4240 ha        1 MOX      0.157000
     43 H62        -0.4930   -2.8750   -1.3910 h1        1 MOX      0.057033
     44 H62A        0.9140   -2.4570   -0.2830 h1        1 MOX      0.057033
     45 H62B       -0.7900   -2.5760    0.3930 h1        1 MOX      0.057033
     46 H221       -1.2790    0.0120    1.3470 hn        1 MOX      0.490800
@<TRIPOS>BOND
     1    1    2 2   
     2    1    3 1   
     3    1   30 1   
     4    3    4 1   
     5    3    5 1   
     6    3   26 1   
     7    4   13 1   
     8    4   31 1   
     9    4   46 1   
    10    5    6 1   
    11    5   11 1   
    12    5   32 1   
    13    6    7 1   
    14    7    8 1   
    15    7   33 1   
    16    7   34 1   
    17    8    9 1   
    18    8   12 2   
    19    9   10 1   
    20    9   11 2   
    21   10   28 1   
    22   10   29 1   
    23   12   35 1   
    24   12   36 1   
    25   13   14 2   
    26   13   15 1   
    27   15   16 1   
    28   15   23 1   
    29   15   37 1   
    30   16   17 ar  
    31   16   22 ar  
    32   17   18 ar  
    33   17   38 1   
    34   18   19 ar  
    35   18   39 1   
    36   19   20 1   
    37   19   21 ar  
    38   20   40 1   
    39   21   22 ar  
    40   21   41 1   
    41   22   42 1   
    42   23   24 1   
    43   23   25 1   
    44   26   27 1   
    45   27   43 1   
    46   27   44 1   
    47   27   45 1   
@<TRIPOS>SUBSTRUCTURE
     1 MOX         1 TEMP              0 ****  ****    0 ROOT
