@<TRIPOS>MOLECULE
molecule
   45    46     1     0     0
SMALL
bcc


@<TRIPOS>ATOM
      1 C1           1.5070     0.0000     0.0000 c          1 MOX       0.534900
      2 O1           2.1110     0.0050     1.0460 o          1 MOX      -0.475100
      3 C2           0.0000     0.0000     0.0000 c3         1 MOX       0.258200
      4 N2          -0.4890     0.0000     1.3810 ns         1 MOX      -0.556900
      5 C3          -0.5100     1.2490    -0.7210 c3         1 MOX       0.310300
      6 O4           0.0330     1.2780    -2.0390 os         1 MOX      -0.459600
      7 C5          -0.4820     2.3460    -2.8500 c3         1 MOX       0.176600
      8 C6          -1.9790     2.1230    -2.9620 ce         1 MOX      -0.266800
      9 C7          -2.6700     1.6280    -1.7480 ce         1 MOX       0.447600
     10 C8          -4.1560     1.5920    -1.6940 c          1 MOX       0.813300
     11 N8          -1.9670     1.2270    -0.7350 n2         1 MOX      -0.582900
     12 C9          -2.6360     2.3600    -4.0920 c2         1 MOX      -0.198000
     13 C21         -0.1620     1.0110     2.2110 c          1 MOX       0.721100
     14 O21          0.5350     1.9210     1.8150 o          1 MOX      -0.669100
     15 C22         -0.6650     1.0110     3.6320 c3         1 MOX      -0.212400
     16 C23         -0.1630     2.2420     4.3420 ca         1 MOX       0.008700
     17 C24         -1.0620     3.1510     4.8670 ca         1 MOX      -0.087500
     18 C25         -0.6050     4.2800     5.5190 ca         1 MOX      -0.166500
     19 C26          0.7600     4.5010     5.6460 ca         1 MOX       0.057100
     20 O26          1.2110     5.6110     6.2860 oh         1 MOX      -0.541100
     21 C27          1.6600     3.5870     5.1190 ca         1 MOX      -0.166500
     22 C28          1.1970     2.4560     4.4730 ca         1 MOX      -0.087500
     23 C29         -0.1630    -0.2190     4.3430 c          1 MOX       0.897600
     24 O30          0.5320    -1.0140     3.7550 o          1 MOX      -0.836800
     25 O31         -0.4870    -0.4320     5.6280 o          1 MOX      -0.836800
     26 O61         -0.4760    -1.1680    -0.6730 os         1 MOX      -0.392600
     27 C62         -0.1630    -2.3920    -0.0070 c3         1 MOX       0.111700
     28 O81         -4.8080     2.0340    -2.6160 o          1 MOX      -0.823300
     29 O82         -4.7760     1.0690    -0.6190 o          1 MOX      -0.823300
     30 H1           2.0490    -0.0380    -0.9370 h4         1 MOX      -0.010800
     31 HN2         -1.1010    -0.7270     1.6950 hn         1 MOX       0.342500
     32 H3          -0.1780     2.1300    -0.1860 h2         1 MOX       0.097700
     33 H5          -0.0290     2.3140    -3.8330 h1         1 MOX       0.035200
     34 H5A         -0.2840     3.2990    -2.3740 h1         1 MOX       0.035200
     35 H9          -3.7050     2.1920    -4.1430 ha         1 MOX       0.124500
     36 H9A         -2.1030     2.7220    -4.9630 ha         1 MOX       0.124500
     37 H22         -1.7480     1.0110     3.6320 hc         1 MOX       0.080700
     38 H24         -2.1270     2.9770     4.7680 ha         1 MOX       0.145000
     39 H25         -1.3100     4.9920     5.9300 ha         1 MOX       0.113000
     40 HO26         1.3620     5.4100     7.1950 ho         1 MOX       0.394000
     41 H27          2.7250     3.7560     5.2190 ha         1 MOX       0.113000
     42 H28          1.8990     1.7420     4.0610 ha         1 MOX       0.145000
     43 H62         -1.0160    -2.7130     0.5790 h1         1 MOX       0.034367
     44 H62A         0.0770    -3.1520    -0.7410 h1         1 MOX       0.034367
     45 H62B         0.6870    -2.2400     0.6470 h1         1 MOX       0.034367
@<TRIPOS>BOND
     1     2     1 2
     2     1     3 1
     3     1    30 1
     4     5     3 1
     5     3     4 1
     6     3    26 1
     7     4    13 1
     8     4    31 1
     9    11     5 1
    10     5     6 1
    11     5    32 1
    12     7     6 1
    13     8     7 1
    14     7    33 1
    15     7    34 1
    16    12     8 2
    17     9     8 1
    18    10     9 1
    19     9    11 2
    20    28    10 1
    21    29    10 1
    22    12    35 1
    23    12    36 1
    24    13    15 1
    25    13    14 2
    26    23    15 1
    27    15    16 1
    28    15    37 1
    29    16    17 ar
    30    16    22 ar
    31    17    18 ar
    32    17    38 1
    33    18    19 ar
    34    18    39 1
    35    21    19 ar
    36    19    20 1
    37    20    40 1
    38    22    21 ar
    39    21    41 1
    40    22    42 1
    41    24    23 1
    42    23    25 1
    43    26    27 1
    44    27    43 1
    45    27    44 1
    46    27    45 1
@<TRIPOS>SUBSTRUCTURE
     1 MOX         1 TEMP              0 ****  ****    0 ROOT
