@<TRIPOS>MOLECULE
molecule
   42    44     1     0     0
SMALL
bcc


@<TRIPOS>ATOM
      1 S            0.0000     0.0000     0.0000 s          1 MOY      -0.617400
      2 O3           6.7060     0.6590     0.3890 o          1 MOY      -0.501100
      3 O4           3.6940     5.0130     0.7020 oh         1 MOY      -0.520100
      4 N1           2.3070     0.0000     1.2310 ns         1 MOY      -0.519900
      5 N2           2.5320    -0.0390    -1.1320 n          1 MOY      -0.361000
      6 C1           1.6870     0.0000     0.0000 cs         1 MOY       0.613400
      7 C2           3.9290    -0.2290    -1.0010 c2         1 MOY       0.082400
      8 C3           4.5060    -0.1320     0.2170 ce         1 MOY      -0.288400
      9 C4           3.7280     0.1850     1.4610 c3         1 MOY       0.220200
     10 C6           4.7030    -0.5590    -2.2590 c3         1 MOY      -0.055900
     11 C17          5.9550    -0.3080     0.4320 c          1 MOY       0.592900
     12 C18          6.4750    -1.6640     0.7230 ca         1 MOY      -0.175600
     13 C19          5.5900    -2.7230     0.7840 ca         1 MOY      -0.081000
     14 C20          6.0790    -4.0000     1.0580 ca         1 MOY      -0.142000
     15 C21          7.4450    -4.1940     1.2660 ca         1 MOY      -0.101000
     16 C22          8.3220    -3.1100     1.1990 ca         1 MOY      -0.142000
     17 C23          7.8320    -1.8330     0.9250 ca         1 MOY      -0.081000
     18 C24          3.9780     1.5820     1.9330 ca         1 MOY      -0.106300
     19 C25          3.7160     2.6570     1.0870 ca         1 MOY      -0.113000
     20 C26          3.9490     3.9600     1.5270 ca         1 MOY       0.105100
     21 C27          4.4440     4.1850     2.8120 ca         1 MOY      -0.138000
     22 C28          4.7060     3.1050     3.6560 ca         1 MOY      -0.116000
     23 C29          4.4730     1.8030     3.2160 ca         1 MOY      -0.120000
     24 HO4          2.7940     5.2770     0.7980 ho         1 MOY       0.420000
     25 HN1          1.7280    -0.1400     2.0350 hn         1 MOY       0.356500
     26 H4           4.0370    -0.5030     2.2390 h1         1 MOY       0.066700
     27 H51          2.0390    -0.9300    -2.9690 h1         1 MOY       0.061700
     28 H52          2.5150     0.7710    -3.0700 h1         1 MOY       0.061700
     29 H53          0.9240     0.3330    -2.4310 h1         1 MOY       0.061700
     30 H61          5.7490    -0.7000    -2.0130 hc         1 MOY       0.062700
     31 H62          4.6050     0.2550    -2.9670 hc         1 MOY       0.062700
     32 H63          4.3100    -1.4680    -2.6970 hc         1 MOY       0.062700
     33 H19          4.5310    -2.5640     0.6220 ha         1 MOY       0.149000
     34 H20          5.3990    -4.8410     1.1090 ha         1 MOY       0.137000
     35 H21          7.8250    -5.1850     1.4780 ha         1 MOY       0.135000
     36 H22          9.3820    -3.2600     1.3600 ha         1 MOY       0.137000
     37 H23          8.5050    -0.9860     0.8710 ha         1 MOY       0.149000
     38 H25          3.2640     2.4860     0.1170 ha         1 MOY       0.144000
     39 H27          4.6250     5.1960     3.1530 ha         1 MOY       0.142000
     40 H28          5.0910     3.2800     4.6540 ha         1 MOY       0.136000
     41 H29          4.6760     0.9640     3.8710 ha         1 MOY       0.131000
     42 C5           1.9650     0.0390    -2.4900 c3         1 MOY       0.090300
@<TRIPOS>BOND
     1     1     6 2
     2     2    11 2
     3     3    20 1
     4     3    24 1
     5     4     6 1
     6     4     9 1
     7     4    25 1
     8     5     7 1
     9     5     6 1
    10     5    42 1
    11     7    10 1
    12     7     8 2
    13     8    11 1
    14     8     9 1
    15     9    18 1
    16     9    26 1
    17    42    27 1
    18    42    28 1
    19    42    29 1
    20    10    30 1
    21    10    31 1
    22    10    32 1
    23    11    12 1
    24    12    17 ar
    25    12    13 ar
    26    13    14 ar
    27    13    33 1
    28    14    15 ar
    29    14    34 1
    30    15    16 ar
    31    15    35 1
    32    16    17 ar
    33    16    36 1
    34    17    37 1
    35    18    19 ar
    36    18    23 ar
    37    19    20 ar
    38    19    38 1
    39    20    21 ar
    40    21    22 ar
    41    21    39 1
    42    22    23 ar
    43    22    40 1
    44    23    41 1
@<TRIPOS>SUBSTRUCTURE
     1 MOY         1 TEMP              0 ****  ****    0 ROOT
