@<TRIPOS>MOLECULE
MOY
   42    44     1     0     0
SMALL
bcc


@<TRIPOS>ATOM
      1 S            0.0000     0.0000     0.0000 s          1 MOY      -0.644400
      2 O3           6.7060     0.6590     0.3890 o          1 MOY      -0.535100
      3 O4           3.6940     5.0130     0.7020 oh         1 MOY      -0.498100
      4 N1           2.3070     0.0000     1.2310 ns         1 MOY      -0.085900
      5 N2           2.5320    -0.0390    -1.1320 n          1 MOY       0.060000
      6 C1           1.6870     0.0000     0.0000 cs         1 MOY       0.314400
      7 C2           3.9290    -0.2290    -1.0010 c2         1 MOY      -0.062600
      8 C3           4.5060    -0.1320     0.2170 ce         1 MOY      -0.291400
      9 C4           3.7280     0.1850     1.4610 c3         1 MOY       0.143200
     10 C6           4.7030    -0.5590    -2.2590 c3         1 MOY       0.051100
     11 C17          5.9550    -0.3080     0.4320 c          1 MOY       0.654900
     12 C18          6.4750    -1.6640     0.7230 ca         1 MOY      -0.187600
     13 C19          5.5900    -2.7230     0.7840 ca         1 MOY      -0.053000
     14 C20          6.0790    -4.0000     1.0580 ca         1 MOY      -0.114000
     15 C21          7.4450    -4.1940     1.2660 ca         1 MOY      -0.070000
     16 C22          8.3220    -3.1100     1.1990 ca         1 MOY      -0.114000
     17 C23          7.8320    -1.8330     0.9250 ca         1 MOY      -0.053000
     18 C24          3.9780     1.5820     1.9330 ca         1 MOY      -0.120300
     19 C25          3.7160     2.6570     1.0870 ca         1 MOY      -0.102000
     20 C26          3.9490     3.9600     1.5270 ca         1 MOY       0.128100
     21 C27          4.4440     4.1850     2.8120 ca         1 MOY      -0.120000
     22 C28          4.7060     3.1050     3.6560 ca         1 MOY      -0.080000
     23 C29          4.4730     1.8030     3.2160 ca         1 MOY      -0.094000
     24 HO4          2.7940     5.2770     0.7980 ho         1 MOY       0.404000
     25 HN1          1.7280    -0.1400     2.0350 hn         1 MOY       0.208500
     26 H4           4.0370    -0.5030     2.2390 h1         1 MOY       0.039700
     27 H51          2.0390    -0.9300    -2.9690 h1         1 MOY       0.035033
     28 H52          2.5150     0.7710    -3.0700 h1         1 MOY       0.035033
     29 H53          0.9240     0.3330    -2.4310 h1         1 MOY       0.035033
     30 H61          5.7490    -0.7000    -2.0130 hc         1 MOY       0.025367
     31 H62          4.6050     0.2550    -2.9670 hc         1 MOY       0.025367
     32 H63          4.3100    -1.4680    -2.6970 hc         1 MOY       0.025367
     33 H19          4.5310    -2.5640     0.6220 ha         1 MOY       0.119500
     34 H20          5.3990    -4.8410     1.1090 ha         1 MOY       0.108500
     35 H21          7.8250    -5.1850     1.4780 ha         1 MOY       0.105000
     36 H22          9.3820    -3.2600     1.3600 ha         1 MOY       0.108500
     37 H23          8.5050    -0.9860     0.8710 ha         1 MOY       0.119500
     38 H25          3.2640     2.4860     0.1170 ha         1 MOY       0.115000
     39 H27          4.6250     5.1960     3.1530 ha         1 MOY       0.115000
     40 H28          5.0910     3.2800     4.6540 ha         1 MOY       0.106000
     41 H29          4.6760     0.9640     3.8710 ha         1 MOY       0.106000
     42 C5           1.9650     0.0390    -2.4900 c3         1 MOY       0.038300
@<TRIPOS>BOND
     1     1     6 2   
     2     2    11 2   
     3     3    20 1   
     4     3    24 1   
     5     4     6 1   
     6     4     9 1   
     7     4    25 1   
     8     5     6 1   
     9     5     7 1   
    10     5    42 1   
    11     7     8 2   
    12     7    10 1   
    13     8     9 1   
    14     8    11 1   
    15     9    18 1   
    16     9    26 1   
    17    10    30 1   
    18    10    31 1   
    19    10    32 1   
    20    11    12 1   
    21    12    13 ar  
    22    12    17 ar  
    23    13    14 ar  
    24    13    33 1   
    25    14    15 ar  
    26    14    34 1   
    27    15    16 ar  
    28    15    35 1   
    29    16    17 ar  
    30    16    36 1   
    31    17    37 1   
    32    18    19 ar  
    33    18    23 ar  
    34    19    20 ar  
    35    19    38 1   
    36    20    21 ar  
    37    21    22 ar  
    38    21    39 1   
    39    22    23 ar  
    40    22    40 1   
    41    23    41 1   
    42    27    42 1   
    43    28    42 1   
    44    29    42 1   
@<TRIPOS>SUBSTRUCTURE
     1 MOY         1 TEMP              0 ****  ****    0 ROOT
