@<TRIPOS>MOLECULE
molecule
   36    36     1     0     0
SMALL
bcc


@<TRIPOS>ATOM
      1 O20          0.0000     0.0000     0.0000 o          1 MP2      -0.602000
      2 C19          1.2160     0.0000     0.0000 c          1 MP2       0.755100
      3 N18          1.8900     0.0000     1.1680 ns         1 MP2      -0.548900
      4 C15          1.1570     0.0010     2.4360 c3         1 MP2       0.074700
      5 C17          0.7930    -1.4370     2.8150 c3         1 MP2       0.015700
      6 S21         -0.2470    -2.1600     1.5160 sh         1 MP2      -0.374900
      7 C13          2.0210     0.6000     3.5150 c          1 MP2       0.633100
      8 O14          3.1390     0.9900     3.2500 o          1 MP2      -0.640100
      9 N            1.5520     0.7050     4.7740 ns         1 MP2      -0.538900
     10 CA           2.3930     1.2890     5.8220 c3         1 MP2      -0.005000
     11 C            1.6390     1.2890     7.1270 c          1 MP2       0.883600
     12 O1           2.2160     1.7800     8.2360 o          1 MP2      -0.841800
     13 O2           0.5160     0.8470     7.1760 o          1 MP2      -0.841800
     14 O22          1.8890    -0.0000    -1.1660 os         1 MP2      -0.447900
     15 C23          1.1630    -0.0010    -2.4230 c3         1 MP2       0.223700
     16 C24          2.1410    -0.0010    -3.5690 ca         1 MP2      -0.092300
     17 C29          2.5860     1.1960    -4.0990 ca         1 MP2      -0.101500
     18 C28          3.4880     1.1960    -5.1460 ca         1 MP2      -0.136500
     19 C27          3.9380    -0.0010    -5.6710 ca         1 MP2      -0.123000
     20 C26          3.4890    -1.1980    -5.1450 ca         1 MP2      -0.136500
     21 C25          2.5910    -1.1980    -4.0940 ca         1 MP2      -0.101500
     22 H18          2.8910    -0.0230     1.1680 hn         1 MP2       0.344500
     23 H15          0.2520     0.5870     2.3300 h1         1 MP2       0.103700
     24 H171         0.2520    -1.4370     3.7530 h1         1 MP2       0.069700
     25 H172         1.6980    -2.0220     2.9210 h1         1 MP2       0.069700
     26 H21         -0.5450    -3.4130     1.8350 hs         1 MP2       0.167800
     27 HN           0.6180     0.4150     4.9860 hn         1 MP2       0.336500
     28 HA1          2.6500     2.3060     5.5530 h1         1 MP2       0.049200
     29 HA2          3.2980     0.7030     5.9280 h1         1 MP2       0.049200
     30 H231         0.5400    -0.8850    -2.4800 h1         1 MP2       0.053200
     31 H232         0.5400     0.8840    -2.4810 h1         1 MP2       0.053200
     32 H29          2.2340     2.1340    -3.6880 ha         1 MP2       0.136000
     33 H28          3.8380     2.1340    -5.5590 ha         1 MP2       0.127000
     34 H27          4.6430    -0.0010    -6.4930 ha         1 MP2       0.124000
     35 H26          3.8410    -2.1370    -5.5560 ha         1 MP2       0.127000
     36 H25          2.2390    -2.1360    -3.6820 ha         1 MP2       0.136000
@<TRIPOS>BOND
     1     1     2 2
     2     2     3 1
     3     2    14 1
     4     3     4 1
     5     3    22 1
     6     4     5 1
     7     4     7 1
     8     4    23 1
     9     5     6 1
    10     5    24 1
    11     5    25 1
    12     6    26 1
    13     7     8 2
    14     7     9 1
    15     9    10 1
    16     9    27 1
    17    10    11 1
    18    10    28 1
    19    10    29 1
    20    11    12 1
    21    11    13 1
    22    14    15 1
    23    15    16 1
    24    15    30 1
    25    15    31 1
    26    16    17 ar
    27    16    21 ar
    28    17    18 ar
    29    17    32 1
    30    18    19 ar
    31    18    33 1
    32    19    20 ar
    33    19    34 1
    34    20    21 ar
    35    20    35 1
    36    21    36 1
@<TRIPOS>SUBSTRUCTURE
     1 MP2         1 TEMP              0 ****  ****    0 ROOT
