@<TRIPOS>MOLECULE
MP3
   15    14     1     0     0
SMALL
bcc


@<TRIPOS>ATOM
      1 O1          0.1490    0.0070   -0.0800 o         1 MP3     -0.900300
      2 C1          1.3510   -0.4040    0.0130 c         1 MP3      0.885600
      3 O2          1.8710   -1.1120   -0.9060 o         1 MP3     -0.900300
      4 C2          2.1430   -0.1010    1.3000 c3        1 MP3      0.019100
      5 OH          1.2380   -0.1760    2.4010 oh        1 MP3     -0.639800
      6 C3          2.8810    1.2590    1.2630 c3        1 MP3      0.205400
      7 OPC         4.0000    1.2450    2.0670 os        1 MP3     -0.583200
      8 PC          4.4700    2.7410    2.7810 p5        1 MP3      1.326900
      9 OC1         3.1770    3.4190    3.1640 o         1 MP3     -0.950500
     10 OC2         5.3270    2.2890    3.9410 o         1 MP3     -0.950500
     11 OC3         5.2310    3.4370    1.6760 o         1 MP3     -0.950500
     12 H2          2.8860   -0.9190    1.4940 h1        1 MP3      0.049700
     13 HO          0.5770    0.5050    2.2330 ho        1 MP3      0.391000
     14 H31         3.1720    1.4260    0.1820 h1        1 MP3     -0.001800
     15 H32         2.1790    2.0790    1.5850 h1        1 MP3     -0.001800
@<TRIPOS>BOND
     1    1    2 1   
     2    2    3 1   
     3    2    4 1   
     4    4    5 1   
     5    4    6 1   
     6    4   12 1   
     7    5   13 1   
     8    6    7 1   
     9    6   14 1   
    10    6   15 1   
    11    7    8 1   
    12    8    9 1   
    13    8   10 1   
    14    8   11 1   
@<TRIPOS>SUBSTRUCTURE
     1 MP3         1 TEMP              0 ****  ****    0 ROOT
