@<TRIPOS>MOLECULE
molecule
   15    14     1     0     0
SMALL
bcc


@<TRIPOS>ATOM
      1 O1           0.0000     0.0000     0.0000 o          1 MP3      -0.884800
      2 C1           1.2080     0.0000     0.0000 c          1 MP3       0.882600
      3 O2           1.8770     0.0010    -1.1640 o          1 MP3      -0.884800
      4 C2           1.9630     0.0000     1.3030 c3         1 MP3       0.041100
      5 OH           1.0360    -0.0000     2.3900 oh         1 MP3      -0.591800
      6 C3           2.8430     1.2490     1.3830 c3         1 MP3       0.168400
      7 OPC          3.5590     1.2480     2.6180 os         1 MP3      -0.569200
      8 PC           4.4590     2.5810     2.6360 p5         1 MP3       1.195900
      9 OC1          3.5840     3.7700     2.5360 o          1 MP3      -0.936500
     10 OC2          5.2980     2.6470     4.0080 o          1 MP3      -0.936500
     11 OC3          5.4750     2.5600     1.3870 o          1 MP3      -0.936500
     12 H2           2.5860    -0.8850     1.3590 h1         1 MP3       0.002700
     13 HO           0.9960    -0.8630     2.7690 ho         1 MP3       0.340000
     14 H31          3.5450     1.2500     0.5590 h1         1 MP3       0.054700
     15 H32          2.2200     2.1340     1.3280 h1         1 MP3       0.054700
@<TRIPOS>BOND
     1     1     2 1
     2     2     3 1
     3     2     4 1
     4     4     5 1
     5     4     6 1
     6     4    12 1
     7     5    13 1
     8     6     7 1
     9     6    14 1
    10     6    15 1
    11     7     8 1
    12     8     9 1
    13     8    10 1
    14     8    11 1
@<TRIPOS>SUBSTRUCTURE
     1 MP3         1 TEMP              0 ****  ****    0 ROOT
