@<TRIPOS>MOLECULE
molecule
   22    22     1     0     0
SMALL
bcc


@<TRIPOS>ATOM
      1 C1           0.0000     0.0000     0.0000 ca         1 MP5      -0.337900
      2 C2           1.3960     0.0000     0.0000 ca         1 MP5       0.698200
      3 C3          -0.7720     0.0060    -1.2920 c3         1 MP5       0.198700
      4 N1           2.0990     0.0060    -1.1930 nv         1 MP5      -1.013500
      5 N2           2.0400     0.0000     1.1640 nb         1 MP5      -0.843000
      6 C4           1.3750    -0.0110     2.3000 ca         1 MP5       0.662300
      7 C5           2.1410    -0.0170     3.5980 c3         1 MP5      -0.109400
      8 N3           0.0570    -0.0120     2.3340 nb         1 MP5      -0.803000
      9 C6          -0.6540    -0.0060     1.2160 ca         1 MP5       0.491200
     10 O1          -2.1720     0.0050    -1.0110 os         1 MP5      -0.538200
     11 P1          -2.9330     0.0120    -2.4300 p5         1 MP5       1.146900
     12 O2          -4.5240     0.0110    -2.1870 o          1 MP5      -0.906167
     13 O3          -2.5520    -1.1930    -3.2000 o          1 MP5      -0.906167
     14 O4          -2.5170     1.3290    -3.2560 o          1 MP5      -0.906167
     15 H31         -0.5190    -0.8760    -1.8680 h1         1 MP5       0.054700
     16 H32         -0.5180     0.8930    -1.8610 h1         1 MP5       0.054700
     17 HN11         1.6070    -0.0190    -2.0640 hn         1 MP5       0.437800
     18 HN12         3.1000     0.0230    -1.1840 hn         1 MP5       0.437800
     19 H51          2.6130     0.9470     3.7430 hc         1 MP5       0.035367
     20 H52          2.9010    -0.7890     3.5650 hc         1 MP5       0.035367
     21 H53          1.4610    -0.2140     4.4180 hc         1 MP5       0.035367
     22 H6          -1.7370    -0.0070     1.2550 h4         1 MP5       0.073100
@<TRIPOS>BOND
     1     1     2 ar
     2     1     3 1
     3     1     9 ar
     4     2     4 1
     5     2     5 ar
     6     3    10 1
     7     3    15 1
     8     3    16 1
     9     4    17 1
    10     4    18 1
    11     5     6 ar
    12     6     7 1
    13     6     8 ar
    14     7    19 1
    15     7    20 1
    16     7    21 1
    17     8     9 ar
    18     9    22 1
    19    10    11 1
    20    11    12 1
    21    11    13 1
    22    11    14 1
@<TRIPOS>SUBSTRUCTURE
     1 MP5         1 TEMP              0 ****  ****    0 ROOT
