@<TRIPOS>MOLECULE
molecule
   61    65     1     0     0
SMALL
bcc


@<TRIPOS>ATOM
      1 C            0.0000     0.0000     0.0000 ca         1 MP6       0.761200
      2 N            1.3200     0.0000     0.0000 nb         1 MP6      -0.815000
      3 O            1.7340     0.0040     4.6740 o          1 MP6      -0.541100
      4 C1          -0.7350     0.0010     1.2100 ca         1 MP6      -0.224300
      5 C2          -0.0280     0.0020     2.4390 ca         1 MP6       0.076000
      6 C3          -0.7260     0.0030     3.6430 ca         1 MP6      -0.130000
      7 C4          -2.1140     0.0030     3.6240 ca         1 MP6       0.043000
      8 C5          -2.8070     0.0010     2.4050 ca         1 MP6      -0.145000
      9 C6          -2.1360     0.0020     1.2200 ca         1 MP6      -0.094000
     10 C7           1.4330     0.0020     2.3770 ca         1 MP6      -0.370900
     11 C8           2.0450     0.0000     1.1130 ca         1 MP6       0.578100
     12 C9           3.5250    -0.0010     1.0750 cc         1 MP6      -0.358400
     13 C10          4.2460     0.0010     2.3530 cc         1 MP6       0.569500
     14 N11          3.6040     0.0020     3.4890 nd         1 MP6      -0.666100
     15 C12          2.2640     0.0020     3.5750 c          1 MP6       0.735100
     16 N13         -0.6750     0.0050    -1.2020 nu         1 MP6      -0.894900
     17 C14          0.0720     0.0100    -2.4620 c3         1 MP6       0.248500
     18 C15          0.4400     1.4480    -2.8310 c3         1 MP6      -0.113100
     19 C16         -0.7930    -0.5950    -3.5690 c3         1 MP6      -0.086000
     20 C17         -2.0690     0.2340    -3.7300 c3         1 MP6      -0.084100
     21 C18         -0.0130    -0.5900    -4.8860 c3         1 MP6      -0.084100
     22 C19         -1.1620    -2.0330    -3.2000 c3         1 MP6      -0.084100
     23 C20          4.1940    -0.0020    -0.1050 c2         1 MP6      -0.028200
     24 C21          5.6950     0.1290    -0.1190 c3         1 MP6      -0.040200
     25 C22          6.3070    -1.0890    -0.8150 cx         1 MP6      -0.142700
     26 C23          7.8200    -1.0900    -1.0370 cx         1 MP6      -0.132900
     27 C24          7.2030    -2.0050     0.0220 cx         1 MP6      -0.132900
     28 C25         -2.8690     0.0040     4.9000 cc         1 MP6      -0.270300
     29 C26         -2.3150     0.0050     6.1960 cc         1 MP6       0.359200
     30 N27         -3.2970     0.0060     7.0580 nd         1 MP6      -0.509800
     31 N28         -4.5070     0.0060     6.3530 na         1 MP6      -0.041600
     32 C29         -4.2280     0.0100     5.0340 cd         1 MP6      -0.100300
     33 H3          -0.1920     0.0040     4.5860 ha         1 MP6       0.188000
     34 H5          -3.8900     0.0010     2.4060 ha         1 MP6       0.124000
     35 H6          -2.6850     0.0010     0.2860 ha         1 MP6       0.119000
     36 H10          5.3290     0.0010     2.3540 h4         1 MP6       0.037800
     37 HN13        -1.6750     0.0470    -1.2130 hn         1 MP6       0.451800
     38 H14          0.9760    -0.5770    -2.3480 h1         1 MP6       0.081700
     39 H15         -0.0320     2.1320    -2.1350 hc         1 MP6       0.043700
     40 H15A         0.0980     1.6630    -3.8360 hc         1 MP6       0.043700
     41 H15B         1.5160     1.5700    -2.7820 hc         1 MP6       0.043700
     42 H17         -1.8240     1.2880    -3.6770 hc         1 MP6       0.037922
     43 H17A        -2.7640    -0.0150    -2.9370 hc         1 MP6       0.037922
     44 H17B        -2.5230     0.0170    -4.6890 hc         1 MP6       0.037922
     45 H18          1.0040    -0.9150    -4.7040 hc         1 MP6       0.037922
     46 H18A        -0.0040     0.4130    -5.2960 hc         1 MP6       0.037922
     47 H18B        -0.4880    -1.2630    -5.5890 hc         1 MP6       0.037922
     48 H19         -1.8460    -2.0260    -2.3600 hc         1 MP6       0.037922
     49 H19A        -0.2650    -2.5780    -2.9320 hc         1 MP6       0.037922
     50 H19B        -1.6360    -2.5130    -4.0480 hc         1 MP6       0.037922
     51 H20          3.6470    -0.0570    -1.0380 ha         1 MP6       0.159000
     52 H21          6.0630     0.1850     0.8990 hc         1 MP6       0.062200
     53 H21A         5.9740     1.0280    -0.6540 hc         1 MP6       0.062200
     54 H22          5.7360    -1.5940    -1.5850 hc         1 MP6       0.086700
     55 H23          8.3490    -0.2240    -0.6560 hc         1 MP6       0.076200
     56 H23A         8.1600    -1.5820    -1.9400 hc         1 MP6       0.076200
     57 H24          7.3540    -1.6990     1.0500 hc         1 MP6       0.076200
     58 H24A         7.1650    -3.0570    -0.2340 hc         1 MP6       0.076200
     59 H26         -1.2590     0.0050     6.4360 h4         1 MP6       0.065100
     60 HN28        -5.4220     0.0080     6.7590 hn         1 MP6       0.329700
     61 H29         -4.9500     0.0100     4.2270 h4         1 MP6       0.170000
@<TRIPOS>BOND
     1     1     2 ar
     2     1     4 ar
     3     1    16 1
     4     2    11 ar
     5     3    15 2
     6     4     5 ar
     7     4     9 ar
     8     5     6 ar
     9     5    10 ar
    10     6     7 ar
    11     7     8 ar
    12     7    28 1
    13     8     9 ar
    14    10    11 ar
    15    10    15 1
    16    11    12 1
    17    12    13 1
    18    12    23 2
    19    13    14 2
    20    14    15 1
    21    16    17 1
    22    17    18 1
    23    17    19 1
    24    19    20 1
    25    19    21 1
    26    19    22 1
    27    23    24 1
    28    24    25 1
    29    25    26 1
    30    25    27 1
    31    26    27 1
    32    28    29 1
    33    28    32 2
    34    29    30 2
    35    30    31 1
    36    31    32 1
    37     6    33 1
    38     8    34 1
    39     9    35 1
    40    13    36 1
    41    16    37 1
    42    17    38 1
    43    18    39 1
    44    18    40 1
    45    18    41 1
    46    20    42 1
    47    20    43 1
    48    20    44 1
    49    21    45 1
    50    21    46 1
    51    21    47 1
    52    22    48 1
    53    22    49 1
    54    22    50 1
    55    23    51 1
    56    24    52 1
    57    24    53 1
    58    25    54 1
    59    26    55 1
    60    26    56 1
    61    27    57 1
    62    27    58 1
    63    29    59 1
    64    31    60 1
    65    32    61 1
@<TRIPOS>SUBSTRUCTURE
     1 MP6         1 TEMP              0 ****  ****    0 ROOT
