@<TRIPOS>MOLECULE
MP6
   61    65     1     0     0
SMALL
bcc


@<TRIPOS>ATOM
      1 C            0.0000     0.0000     0.0000 ca         1 MP6       0.578200
      2 N            1.3200     0.0000     0.0000 nb         1 MP6      -0.707000
      3 O            1.7340     0.0040     4.6740 o          1 MP6      -0.575100
      4 C1          -0.7350     0.0010     1.2100 ca         1 MP6      -0.230300
      5 C2          -0.0280     0.0020     2.4390 ca         1 MP6       0.097000
      6 C3          -0.7260     0.0030     3.6430 ca         1 MP6      -0.131000
      7 C4          -2.1140     0.0030     3.6240 ca         1 MP6       0.061000
      8 C5          -2.8070     0.0010     2.4050 ca         1 MP6      -0.125000
      9 C6          -2.1360     0.0020     1.2200 ca         1 MP6      -0.071000
     10 C7           1.4330     0.0020     2.3770 ca         1 MP6      -0.381900
     11 C8           2.0450     0.0000     1.1130 ca         1 MP6       0.546100
     12 C9           3.5250    -0.0010     1.0750 cc         1 MP6      -0.366400
     13 C10          4.2460     0.0010     2.3530 cc         1 MP6       0.545500
     14 N11          3.6040     0.0020     3.4890 nd         1 MP6      -0.564100
     15 C12          2.2640     0.0020     3.5750 c          1 MP6       0.746100
     16 N13         -0.6750     0.0050    -1.2020 nu         1 MP6      -0.488900
     17 C14          0.0720     0.0100    -2.4620 c3         1 MP6       0.137500
     18 C15          0.4400     1.4480    -2.8310 c3         1 MP6      -0.032100
     19 C16         -0.7930    -0.5950    -3.5690 c3         1 MP6      -0.083000
     20 C17         -2.0690     0.2340    -3.7300 c3         1 MP6       0.000233
     21 C18         -0.0130    -0.5900    -4.8860 c3         1 MP6       0.000233
     22 C19         -1.1620    -2.0330    -3.2000 c3         1 MP6       0.000233
     23 C20          4.1940    -0.0020    -0.1050 c2         1 MP6      -0.005200
     24 C21          5.6950     0.1290    -0.1190 c3         1 MP6       0.019800
     25 C22          6.3070    -1.0890    -0.8150 cx         1 MP6      -0.116700
     26 C23          7.8200    -1.0900    -1.0370 cx         1 MP6      -0.077400
     27 C24          7.2030    -2.0050     0.0220 cx         1 MP6      -0.077400
     28 C25         -2.8690     0.0040     4.9000 cc         1 MP6      -0.277300
     29 C26         -2.3150     0.0050     6.1960 cc         1 MP6       0.422200
     30 N27         -3.2970     0.0060     7.0580 nd         1 MP6      -0.664800
     31 N28         -4.5070     0.0060     6.3530 na         1 MP6       0.456400
     32 C29         -4.2280     0.0100     5.0340 cd         1 MP6      -0.257300
     33 H3          -0.1920     0.0040     4.5860 ha         1 MP6       0.172000
     34 H5          -3.8900     0.0010     2.4060 ha         1 MP6       0.103000
     35 H6          -2.6850     0.0010     0.2860 ha         1 MP6       0.097000
     36 H10          5.3290     0.0010     2.3540 h4         1 MP6      -0.008200
     37 HN13        -1.6750     0.0440    -1.2130 hn         1 MP6       0.309800
     38 H14          0.9760    -0.5770    -2.3480 h1         1 MP6       0.060700
     39 H15          0.0590     1.6770    -3.8180 hc         1 MP6       0.016700
     40 H15A         0.0050     2.1290    -2.1090 hc         1 MP6       0.016700
     41 H15B         1.5180     1.5580    -2.8260 hc         1 MP6       0.016700
     42 H17         -2.4920     0.0600    -4.7120 hc         1 MP6       0.009700
     43 H17A        -1.8330     1.2860    -3.6200 hc         1 MP6       0.009700
     44 H17B        -2.7860    -0.0560    -2.9710 hc         1 MP6       0.009700
     45 H18         -0.5090    -1.2340    -5.6020 hc         1 MP6       0.009700
     46 H18A         0.0280     0.4200    -5.2770 hc         1 MP6       0.009700
     47 H18B         0.9930    -0.9510    -4.7110 hc         1 MP6       0.009700
     48 H19         -0.2660    -2.5760    -2.9250 hc         1 MP6       0.009700
     49 H19A        -1.8510    -2.0260    -2.3650 hc         1 MP6       0.009700
     50 H19B        -1.6290    -2.5150    -4.0500 hc         1 MP6       0.009700
     51 H20          3.6460    -0.0490    -1.0380 ha         1 MP6       0.123000
     52 H21          6.0630     0.1850     0.8990 hc         1 MP6       0.033200
     53 H21A         5.9740     1.0280    -0.6540 hc         1 MP6       0.033200
     54 H22          5.7360    -1.5940    -1.5850 hc         1 MP6       0.061700
     55 H23          8.1600    -1.5820    -1.9410 hc         1 MP6       0.046700
     56 H23A         8.3490    -0.2240    -0.6570 hc         1 MP6       0.046700
     57 H24          7.1650    -3.0570    -0.2340 hc         1 MP6       0.046700
     58 H24A         7.3540    -1.6990     1.0500 hc         1 MP6       0.046700
     59 H26         -1.2590     0.0050     6.4360 h4         1 MP6       0.020100
     60 HN28        -5.4220     0.0080     6.7590 hn         1 MP6       0.145700
     61 H29         -4.9500     0.0100     4.2270 h4         1 MP6       0.146000
@<TRIPOS>BOND
     1     1     2 ar  
     2     1     4 ar  
     3     1    16 1   
     4     2    11 ar  
     5     3    15 2   
     6     4     5 ar  
     7     4     9 ar  
     8     5     6 ar  
     9     5    10 ar  
    10     6     7 ar  
    11     6    33 1   
    12     7     8 ar  
    13     7    28 1   
    14     8     9 ar  
    15     8    34 1   
    16     9    35 1   
    17    10    11 ar  
    18    10    15 1   
    19    11    12 1   
    20    12    13 1   
    21    12    23 2   
    22    13    14 2   
    23    13    36 1   
    24    14    15 1   
    25    16    17 1   
    26    16    37 1   
    27    17    18 1   
    28    17    19 1   
    29    17    38 1   
    30    18    39 1   
    31    18    40 1   
    32    18    41 1   
    33    19    20 1   
    34    19    21 1   
    35    19    22 1   
    36    20    42 1   
    37    20    43 1   
    38    20    44 1   
    39    21    45 1   
    40    21    46 1   
    41    21    47 1   
    42    22    48 1   
    43    22    49 1   
    44    22    50 1   
    45    23    24 1   
    46    23    51 1   
    47    24    25 1   
    48    24    52 1   
    49    24    53 1   
    50    25    26 1   
    51    25    27 1   
    52    25    54 1   
    53    26    27 1   
    54    26    55 1   
    55    26    56 1   
    56    27    57 1   
    57    27    58 1   
    58    28    29 1   
    59    28    32 2   
    60    29    30 2   
    61    29    59 1   
    62    30    31 1   
    63    31    32 1   
    64    31    60 1   
    65    32    61 1   
@<TRIPOS>SUBSTRUCTURE
     1 MP6         1 TEMP              0 ****  ****    0 ROOT
