@<TRIPOS>MOLECULE
MP7
   60    64     1     0     0
SMALL
bcc


@<TRIPOS>ATOM
      1 C            0.0000     0.0000     0.0000 cc         1 MP7      -0.307400
      2 F            0.6850     4.0170     6.0640 f          1 MP7      -0.113900
      3 N            0.0170     0.0020     2.3930 n          1 MP7       0.142000
      4 O           -1.9020     0.0030     1.2710 o          1 MP7      -0.731500
      5 C1           1.3940     0.0000     0.0000 cd         1 MP7       0.067000
      6 C2           2.0690     0.0000     1.2200 cd         1 MP7      -0.212000
      7 C3           1.3720     0.0010     2.3850 cc         1 MP7      -0.122400
      8 C4          -0.6840     0.0020     1.2440 c          1 MP7       0.609700
      9 C5          -0.6960     0.0040     3.6730 c3         1 MP7       0.067300
     10 C6          -0.9390     1.4240     4.1100 ca         1 MP7      -0.125300
     11 C7          -2.0970     2.0760     3.7280 ca         1 MP7      -0.056000
     12 C8          -2.3230     3.3800     4.1280 ca         1 MP7      -0.109000
     13 C9          -1.3890     4.0340     4.9130 ca         1 MP7       0.095900
     14 C10         -0.2280     3.3800     5.2970 ca         1 MP7       0.079900
     15 C11         -0.0070     2.0730     4.8990 ca         1 MP7      -0.101000
     16 F12         -1.6090     5.3080     5.3040 f          1 MP7      -0.112900
     17 C13         -8.6950    -1.6790    -0.4690 ca         1 MP7      -0.206400
     18 C14         -8.3000    -0.4390     0.0390 ca         1 MP7      -0.123400
     19 C15         -7.0530     0.0740    -0.2840 ca         1 MP7      -0.132000
     20 C16         -6.2030    -0.6460    -1.1070 ca         1 MP7       0.162100
     21 C17         -6.5990    -1.8790    -1.6090 ca         1 MP7      -0.207000
     22 C18         -7.8400    -2.3950    -1.2920 ca         1 MP7      -0.035000
     23 N19         -9.9800    -1.9220     0.0160 ns         1 MP7       0.022900
     24 N20         -9.3540     0.0300     0.8190 ns         1 MP7       0.022900
     25 C22         -4.1530    -0.9400    -2.2760 c3         1 MP7       0.193400
     26 C23         -2.8270    -0.2180    -2.5180 c3         1 MP7       0.082000
     27 C24         -3.0970     1.1620    -3.0600 ca         1 MP7      -0.105300
     28 C25         -2.9860     1.4060    -4.4150 ca         1 MP7      -0.078000
     29 C26         -3.2340     2.6730    -4.9120 ca         1 MP7      -0.105000
     30 C27         -3.5940     3.6940    -4.0530 ca         1 MP7      -0.098000
     31 C28         -3.7060     3.4490    -2.6960 ca         1 MP7      -0.105000
     32 C29         -3.4620     2.1820    -2.2000 ca         1 MP7      -0.078000
     33 C30        -10.3470    -0.8780     0.7830 c          1 MP7       0.555500
     34 O31        -11.4140    -0.7720     1.3590 o          1 MP7      -0.720500
     35 N32         -2.0910    -0.1120    -1.2550 ns         1 MP7      -0.219900
     36 C33         -0.7480     0.0060    -1.2660 c          1 MP7       0.623300
     37 O34         -0.1560     0.1190    -2.3220 o          1 MP7      -0.670100
     38 H1           1.9440    -0.0010    -0.9330 ha         1 MP7       0.133000
     39 H2           3.1520    -0.0000     1.2390 ha         1 MP7       0.128000
     40 H3           1.9090     0.0010     3.3260 h4         1 MP7       0.129000
     41 H5          -0.0990    -0.5070     4.4190 h1         1 MP7       0.051200
     42 H5A         -1.6450    -0.5060     3.5580 h1         1 MP7       0.051200
     43 H7          -2.8280     1.5650     3.1130 ha         1 MP7       0.138000
     44 H8          -3.2300     3.8890     3.8270 ha         1 MP7       0.128000
     45 H11          0.8730     1.5440     5.2430 ha         1 MP7       0.121000
     46 H17         -5.9300    -2.4390    -2.2530 ha         1 MP7       0.123000
     47 H18         -8.1440    -3.3570    -1.6870 ha         1 MP7       0.104000
     48 HN19       -10.5350    -2.7320    -0.1760 hn         1 MP7       0.190500
     49 HN20        -9.3710     0.8970     1.3190 hn         1 MP7       0.191500
     50 H22         -3.9630    -1.8970    -1.8050 h1         1 MP7       0.010700
     51 H22A        -4.6570    -1.0970    -3.2220 h1         1 MP7       0.010700
     52 H23         -2.2370    -0.7780    -3.2340 h1         1 MP7       0.059700
     53 H25         -2.7040     0.6060    -5.0890 ha         1 MP7       0.109000
     54 H26         -3.1470     2.8650    -5.9750 ha         1 MP7       0.100500
     55 H27         -3.7870     4.6870    -4.4410 ha         1 MP7       0.100000
     56 H28         -3.9900     4.2480    -2.0230 ha         1 MP7       0.100500
     57 H29         -3.5490     1.9900    -1.1380 ha         1 MP7       0.109000
     58 HN32        -2.5800    -0.1780    -0.3850 hn         1 MP7       0.244500
     59 O21         -4.9800    -0.1450    -1.4220 os         1 MP7      -0.298900
     60 H15         -6.7440     1.0350     0.1080 ha         1 MP7       0.121000
@<TRIPOS>BOND
     1     1     5 2   
     2     1     8 1   
     3     1    36 1   
     4     2    14 1   
     5     3     7 1   
     6     3     8 1   
     7     3     9 1   
     8     4     8 2   
     9     5     6 1   
    10     5    38 1   
    11     6     7 2   
    12     6    39 1   
    13     7    40 1   
    14     9    10 1   
    15     9    41 1   
    16     9    42 1   
    17    10    11 ar  
    18    10    15 ar  
    19    11    12 ar  
    20    11    43 1   
    21    12    13 ar  
    22    12    44 1   
    23    13    14 ar  
    24    13    16 1   
    25    14    15 ar  
    26    15    45 1   
    27    17    18 ar  
    28    17    22 ar  
    29    17    23 1   
    30    18    19 ar  
    31    18    24 1   
    32    19    20 ar  
    33    19    60 1   
    34    20    21 ar  
    35    20    59 1   
    36    21    22 ar  
    37    21    46 1   
    38    22    47 1   
    39    23    33 1   
    40    23    48 1   
    41    24    33 1   
    42    24    49 1   
    43    25    26 1   
    44    25    50 1   
    45    25    51 1   
    46    25    59 1   
    47    26    27 1   
    48    26    35 1   
    49    26    52 1   
    50    27    28 ar  
    51    27    32 ar  
    52    28    29 ar  
    53    28    53 1   
    54    29    30 ar  
    55    29    54 1   
    56    30    31 ar  
    57    30    55 1   
    58    31    32 ar  
    59    31    56 1   
    60    32    57 1   
    61    33    34 2   
    62    35    36 1   
    63    35    58 1   
    64    36    37 2   
@<TRIPOS>SUBSTRUCTURE
     1 MP7         1 TEMP              0 ****  ****    0 ROOT
