@<TRIPOS>MOLECULE
molecule
   38    40     1     0     0
SMALL
bcc


@<TRIPOS>ATOM
      1 C1           0.0000     0.0000     0.0000 cc         1 MP9      -0.316900
      2 C2           1.3350     0.0000     0.0000 cd         1 MP9       0.342700
      3 O3           1.9460     0.0000     1.2560 os         1 MP9      -0.076100
      4 N4           0.8690    -0.0480     2.1750 nd         1 MP9      -0.390300
      5 C5          -0.1850    -0.0530     1.4300 cc         1 MP9       0.568600
      6 C6           2.1820     0.0070    -1.2010 cd         1 MP9       0.413000
      7 N7           3.5410    -0.0080    -0.9810 nd         1 MP9      -0.323000
      8 N8           4.0780     0.0010    -2.1220 nc         1 MP9      -0.206800
      9 N9           3.0650     0.0590    -3.0180 na         1 MP9       0.177900
     10 N10          1.8520     0.0320    -2.4450 nc         1 MP9      -0.372800
     11 C11          4.0730    -0.1840    -4.0010 c3         1 MP9       0.174600
     12 C12          1.0510    -0.8030    -6.7660 ca         1 MP9      -0.113000
     13 C13          1.7520    -1.8400    -6.2750 ca         1 MP9      -0.141000
     14 C14          2.9880    -1.6050    -5.5490 ca         1 MP9      -0.091500
     15 C15          3.4390    -0.3480    -5.3480 ca         1 MP9      -0.151300
     16 C16          2.6730     0.7730    -5.8940 ca         1 MP9      -0.091500
     17 C17          1.5310     0.5520    -6.5700 ca         1 MP9      -0.141000
     18 O23         -1.4240    -0.1120     1.9380 oh         1 MP9      -0.617300
     19 C24         -0.9200     0.5670    -1.0250 c3         1 MP9       0.022900
     20 C25         -1.2110     2.0730    -0.8900 c3         1 MP9      -0.021500
     21 C26          0.0540     2.9030    -0.9740 c          1 MP9       0.855600
     22 O27          0.5800     3.0900     0.2640 o          1 MP9      -0.767300
     23 O28          0.5480     3.3650    -1.9930 o          1 MP9      -0.767300
     24 N29         -2.1370     2.5570    -1.9110 nz         1 MP9      -0.789600
     25 HO23        -1.4410    -0.7240     2.6550 ho         1 MP9       0.439000
     26 H111         4.6140    -1.0870    -3.7450 h1         1 MP9       0.082700
     27 H112         4.7600     0.6530    -4.0260 h1         1 MP9       0.082700
     28 H16          3.0320     1.7860    -5.7600 ha         1 MP9       0.139500
     29 H17          0.9730     1.3430    -7.0570 ha         1 MP9       0.133500
     30 H241        -0.4870     0.3920    -2.0020 hc         1 MP9       0.055200
     31 H242        -1.8610     0.0340    -0.9680 hc         1 MP9       0.055200
     32 H25         -1.6610     2.2420     0.0810 hx         1 MP9       0.117700
     33 H291        -2.2820     3.5400    -1.7910 hn         1 MP9       0.437467
     34 H292        -3.0110     2.0780    -1.8230 hn         1 MP9       0.437467
     35 H12          0.1530    -0.9810    -7.3450 ha         1 MP9       0.129000
     36 H13          1.3980    -2.8520    -6.4280 ha         1 MP9       0.133500
     37 H293        -1.7600     2.3720    -2.8190 hn         1 MP9       0.437467
     38 H14          3.5560    -2.4460    -5.1710 ha         1 MP9       0.139500
@<TRIPOS>BOND
     1     1    19 1
     2     1     5 1
     3     1     2 2
     4     2     6 1
     5     2     3 1
     6     3     4 1
     7     4     5 2
     8     5    18 1
     9     6    10 2
    10     6     7 1
    11     7     8 2
    12     8     9 1
    13     9    10 1
    14     9    11 1
    15    11    15 1
    16    11    26 1
    17    11    27 1
    18    12    13 ar
    19    12    17 ar
    20    12    35 1
    21    13    14 ar
    22    13    36 1
    23    14    15 ar
    24    14    38 1
    25    15    16 ar
    26    16    17 ar
    27    16    28 1
    28    17    29 1
    29    18    25 1
    30    19    20 1
    31    19    30 1
    32    19    31 1
    33    20    21 1
    34    20    24 1
    35    20    32 1
    36    21    22 1
    37    21    23 1
    38    24    33 1
    39    24    34 1
    40    37    24 1
@<TRIPOS>SUBSTRUCTURE
     1 MP9         1 TEMP              0 ****  ****    0 ROOT
