@<TRIPOS>MOLECULE
molecule
   52    52     1     0     0
SMALL
bcc


@<TRIPOS>ATOM
      1 C1           0.0000     0.0000     0.0000 c3         1 MPA      -0.280600
      2 C2           1.5220     0.0000     0.0000 c3         1 MPA      -0.035400
      3 C3           2.1000     0.0000     1.4160 c3         1 MPA      -0.079400
      4 C4           3.6300    -0.0240     1.3910 c3         1 MPA      -0.080400
      5 C5           4.2090    -0.0560     2.8050 c3         1 MPA      -0.084400
      6 C6           5.7290    -0.1130     2.7830 c3         1 MPA      -0.090100
      7 C7          -3.0470    -0.7590    -0.7040 c3         1 MPA       0.203100
      8 C8          -2.9080    -2.0970    -1.4340 c3         1 MPA      -0.123400
      9 C9          -3.7650    -3.1910    -0.7900 c3         1 MPA      -0.067700
     10 C10         -5.2310    -2.7500    -0.7020 c3         1 MPA      -0.074400
     11 C11         -5.3750    -1.4190     0.0320 c3         1 MPA      -0.077400
     12 C12         -4.5170    -0.3190    -0.6040 c3         1 MPA      -0.055700
     13 C13         -3.6400    -4.5000    -1.5670 c3         1 MPA      -0.082100
     14 C14         -4.6570     0.9870     0.1840 c3         1 MPA      -0.068700
     15 C15         -6.1050     1.4680     0.1660 c3         1 MPA      -0.086600
     16 C16         -4.1690     0.7990     1.6180 c3         1 MPA      -0.086600
     17 O1          -2.3050     0.2300    -1.4120 os         1 MPA      -0.547200
     18 O2          -0.3280    -1.0850    -2.5080 o          1 MPA      -0.803500
     19 P1          -0.7160     0.0690    -1.6300 p5         1 MPA       1.155600
     20 H11         -0.3450    -0.9020     0.4910 hc         1 MPA       0.037700
     21 H12A        -0.3450     0.8570     0.5660 hc         1 MPA       0.037700
     22 H21          1.8730     0.8820    -0.5230 hc         1 MPA       0.051200
     23 H22          1.8730    -0.8820    -0.5230 hc         1 MPA       0.051200
     24 H31          1.7680     0.8910     1.9340 hc         1 MPA       0.027200
     25 H32          1.7410    -0.8740     1.9450 hc         1 MPA       0.027200
     26 H41          3.9620    -0.9030     0.8520 hc         1 MPA       0.039200
     27 H42          3.9900     0.8620     0.8810 hc         1 MPA       0.039200
     28 H51          3.8960     0.8350     3.3360 hc         1 MPA       0.032700
     29 H52          3.8300    -0.9280     3.3230 hc         1 MPA       0.032700
     30 H61          6.1040    -0.1260     3.7990 hc         1 MPA       0.026367
     31 H62          6.1150     0.7580     2.2670 hc         1 MPA       0.026367
     32 H63          6.0490    -1.0100     2.2680 hc         1 MPA       0.026367
     33 H7          -2.6440    -0.8610     0.2960 h1         1 MPA       0.014700
     34 H81         -3.2180    -1.9690    -2.4640 hc         1 MPA       0.073700
     35 H82         -1.8690    -2.4040    -1.4080 hc         1 MPA       0.073700
     36 H9          -3.4020    -3.3540     0.2180 hc         1 MPA       0.034700
     37 H101        -5.7960    -3.5070    -0.1730 hc         1 MPA       0.029700
     38 H102        -5.6270    -2.6430    -1.7050 hc         1 MPA       0.029700
     39 H111        -5.0670    -1.5520     1.0630 hc         1 MPA       0.032200
     40 H112        -6.4140    -1.1140     0.0050 hc         1 MPA       0.032200
     41 H12         -4.8830    -0.1500    -1.6100 hc         1 MPA       0.058700
     42 H131        -4.2360    -5.2650    -1.0840 hc         1 MPA       0.029367
     43 H132        -2.6030    -4.8100    -1.5870 hc         1 MPA       0.029367
     44 H133        -3.9940    -4.3530    -2.5800 hc         1 MPA       0.029367
     45 H14         -4.0410     1.7410    -0.2910 hc         1 MPA       0.083700
     46 H151        -6.5240     1.3150    -0.8220 hc         1 MPA       0.026533
     47 H152        -6.1390     2.5220     0.4130 hc         1 MPA       0.026533
     48 H153        -6.6810     0.9070     0.8930 hc         1 MPA       0.026533
     49 H161        -4.2350     1.7420     2.1480 hc         1 MPA       0.026533
     50 H162        -3.1390     0.4630     1.6080 hc         1 MPA       0.026533
     51 H163        -4.7850     0.0610     2.1160 hc         1 MPA       0.026533
     52 O3          -0.2700     1.5180    -2.1940 o          1 MPA      -0.803500
@<TRIPOS>BOND
     1     1     2 1
     2     1    19 1
     3     1    20 1
     4     1    21 1
     5     2     3 1
     6     2    22 1
     7     2    23 1
     8     3     4 1
     9     3    24 1
    10     3    25 1
    11     4     5 1
    12     4    26 1
    13     4    27 1
    14     5     6 1
    15     5    28 1
    16     5    29 1
    17     6    30 1
    18     6    31 1
    19     6    32 1
    20     7     8 1
    21     7    12 1
    22     7    17 1
    23     7    33 1
    24     8     9 1
    25     8    34 1
    26     8    35 1
    27     9    10 1
    28     9    13 1
    29     9    36 1
    30    10    11 1
    31    10    37 1
    32    10    38 1
    33    11    12 1
    34    11    39 1
    35    11    40 1
    36    12    14 1
    37    12    41 1
    38    13    42 1
    39    13    43 1
    40    13    44 1
    41    14    15 1
    42    14    16 1
    43    14    45 1
    44    15    46 1
    45    15    47 1
    46    15    48 1
    47    16    49 1
    48    16    50 1
    49    16    51 1
    50    17    19 1
    51    18    19 1
    52    52    19 1
@<TRIPOS>SUBSTRUCTURE
     1 MPA         1 TEMP              0 ****  ****    0 ROOT
