@<TRIPOS>MOLECULE
MPA
   52    50     1     0     0
SMALL
bcc


@<TRIPOS>ATOM
      1 C1          1.7020   -0.1040   -1.7520 c3        1 MPA     -0.241000
      2 C2          1.6530   -0.2130   -0.2470 c3        1 MPA     -0.153500
      3 C3          1.1940    1.0850    0.3850 c3        1 MPA     -0.163000
      4 C4          0.9120    0.9100    1.8610 c3        1 MPA     -0.163000
      5 C5          0.6460    2.2420    2.5320 c3        1 MPA     -0.153500
      6 C6          0.1910    2.0510    3.9560 c3        1 MPA     -0.241000
      7 C7         -1.8690   -1.8190   -2.1070 c3        1 MPA      0.055000
      8 C8         -3.2100   -2.2590   -2.6910 c3        1 MPA     -0.158000
      9 C9         -4.0210   -3.0090   -1.6440 c3        1 MPA     -0.109000
     10 C10        -4.2100   -2.1570   -0.3950 c3        1 MPA     -0.147000
     11 C11        -2.8820   -1.6960    0.1620 c3        1 MPA     -0.197000
     12 C12        -2.0880   -0.9380   -0.8780 c3        1 MPA     -0.161000
     13 C13        -5.3580   -3.4240   -2.2180 c3        1 MPA     -0.204000
     14 C14        -3.8400    0.1330    3.2560 c2        1 MPA      0.036000
     15 C15        -4.4300   -0.8250    4.0290 c2        1 MPA     -0.629500
     16 C16        -2.5330    0.1910    2.8270 c2        1 MPA     -0.629500
     17 O1         -1.1780   -1.0620   -3.1030 os        1 MPA     -0.729000
     18 O2          0.6730   -2.8210   -3.0790 o         1 MPA     -1.001000
     19 P1          0.2480   -1.5320   -3.5920 p3        1 MPA      2.440000
     20 H11         2.0740   -1.0610   -2.1950 hc        1 MPA      0.079000
     21 H12A        2.4130    0.7080   -2.0540 hc        1 MPA      0.079000
     22 H21         0.6930    0.1790   -2.1450 hc        1 MPA      0.079000
     23 H22         2.6710   -0.4810    0.1410 hc        1 MPA      0.075750
     24 H31         0.9600   -1.0430    0.0540 hc        1 MPA      0.075750
     25 H32         1.9800    1.8710    0.2330 hc        1 MPA      0.086250
     26 H41         0.2610    1.4430   -0.1260 hc        1 MPA      0.086250
     27 H42         1.7820    0.4060    2.3580 hc        1 MPA      0.086250
     28 H51         0.0110    0.2480    1.9980 hc        1 MPA      0.086250
     29 H52         1.5730    2.8740    2.5010 hc        1 MPA      0.075750
     30 H61        -0.1510    2.7890    1.9610 hc        1 MPA      0.075750
     31 H62         0.0140    3.0400    4.4420 hc        1 MPA      0.079000
     32 H63         0.9620    1.5000    4.5460 hc        1 MPA      0.079000
     33 H7         -1.2440   -2.7200   -1.8410 h1        1 MPA      0.105000
     34 H81        -2.6360   -0.0100   -1.1840 hc        1 MPA      0.091500
     35 H82        -3.0430   -2.9150   -3.5830 hc        1 MPA      0.079500
     36 H9         -3.7720   -1.3530   -3.0360 hc        1 MPA      0.079500
     37 H101       -3.4500   -3.9370   -1.3550 hc        1 MPA      0.084000
     38 H102       -4.7550   -2.7510    0.3840 hc        1 MPA      0.087000
     39 H111       -4.8440   -1.2670   -0.6440 hc        1 MPA      0.087000
     40 H112       -0.7670    1.4620    3.9760 hc        1 MPA      0.079000
     41 H12        -2.2930   -2.5830    0.5120 hc        1 MPA      0.134500
     42 H131       -5.9510   -2.5270   -2.5200 hc        1 MPA      0.068000
     43 H132       -5.2150   -4.0730   -3.1160 hc        1 MPA      0.068000
     44 H133       -5.9430   -3.9920   -1.4560 hc        1 MPA      0.068000
     45 H14        -1.1040   -0.6190   -0.4470 hc        1 MPA      0.091500
     46 H151       -4.4960    0.9650    2.9170 ha        1 MPA      0.030000
     47 H152       -3.8760   -1.6790    4.4180 ha        1 MPA      0.055250
     48 H153       -5.4840   -0.7750    4.3020 ha        1 MPA      0.055250
     49 H161       -1.7970   -0.5550    3.1260 ha        1 MPA      0.055250
     50 H162       -3.0450   -1.0290    1.0720 hc        1 MPA      0.134500
     51 H163       -2.1670    1.0210    2.2220 ha        1 MPA      0.055250
     52 O3          0.8040   -0.6670   -4.6120 o         1 MPA     -1.001000
@<TRIPOS>BOND
     1    1    2 1   
     2    1   20 1   
     3    1   21 1   
     4    1   22 1   
     5    2    3 1   
     6    2   23 1   
     7    2   24 1   
     8    3    4 1   
     9    3   25 1   
    10    3   26 1   
    11    4    5 1   
    12    4   27 1   
    13    4   28 1   
    14    5    6 1   
    15    5   29 1   
    16    5   30 1   
    17    6   31 1   
    18    6   32 1   
    19    6   40 1   
    20    7    8 1   
    21    7   12 1   
    22    7   17 1   
    23    7   33 1   
    24    8    9 1   
    25    8   35 1   
    26    8   36 1   
    27    9   10 1   
    28    9   13 1   
    29    9   37 1   
    30   10   11 1   
    31   10   38 1   
    32   10   39 1   
    33   11   12 1   
    34   11   41 1   
    35   11   50 1   
    36   12   34 1   
    37   12   45 1   
    38   13   42 1   
    39   13   43 1   
    40   13   44 1   
    41   14   15 1   
    42   14   16 1   
    43   14   46 1   
    44   15   47 1   
    45   15   48 1   
    46   16   49 1   
    47   16   51 1   
    48   17   19 1   
    49   18   19 1   
    50   19   52 1   
@<TRIPOS>SUBSTRUCTURE
     1 MPA         1 TEMP              0 ****  ****    0 ROOT
