@<TRIPOS>MOLECULE
molecule
   19    19     1     0     0
SMALL
bcc


@<TRIPOS>ATOM
      1 C            0.0000     0.0000     0.0000 c          1 MPB       0.654700
      2 O1           1.2150     0.0000     0.0000 o          1 MPB      -0.551000
      3 O2          -0.6720     0.0000     1.1670 os         1 MPB      -0.440900
      4 CM           0.0550     0.0010     2.4240 c3         1 MPB       0.148700
      5 C1          -0.7380    -0.0010    -1.2760 ca         1 MPB      -0.143600
      6 C2          -0.0420    -0.0020    -2.4870 ca         1 MPB      -0.058500
      7 C3          -0.7350    -0.0020    -3.6780 ca         1 MPB      -0.172000
      8 C4          -2.1240    -0.0020    -3.6750 ca         1 MPB       0.137100
      9 C5          -2.8200    -0.0020    -2.4710 ca         1 MPB      -0.172000
     10 C6          -2.1350    -0.0070    -1.2770 ca         1 MPB      -0.058500
     11 O4          -2.8040    -0.0020    -4.8490 oh         1 MPB      -0.522100
     12 HM1          0.6770     0.8860     2.4810 h1         1 MPB       0.048700
     13 HM2          0.6780    -0.8830     2.4820 h1         1 MPB       0.048700
     14 HM3         -0.6490     0.0010     3.2480 h1         1 MPB       0.048700
     15 H2           1.0420    -0.0020    -2.4910 ha         1 MPB       0.155500
     16 H3          -0.1960    -0.0020    -4.6170 ha         1 MPB       0.147000
     17 H5          -3.9040    -0.0040    -2.4730 ha         1 MPB       0.147000
     18 H6          -2.6780    -0.0070    -0.3400 ha         1 MPB       0.155500
     19 HO4         -2.9610     0.8870    -5.1220 ho         1 MPB       0.426000
@<TRIPOS>BOND
     1     1     2 2
     2     1     3 1
     3     1     5 1
     4     3     4 1
     5     4    12 1
     6     4    13 1
     7     4    14 1
     8     5     6 ar
     9     5    10 ar
    10     6     7 ar
    11     6    15 1
    12     7     8 ar
    13     7    16 1
    14     8     9 ar
    15     8    11 1
    16     9    10 ar
    17     9    17 1
    18    10    18 1
    19    11    19 1
@<TRIPOS>SUBSTRUCTURE
     1 MPB         1 TEMP              0 ****  ****    0 ROOT
