@<TRIPOS>MOLECULE
MPB
   19    19     1     0     0
SMALL
bcc


@<TRIPOS>ATOM
      1 C           0.0560    0.0220   -0.0160 c         1 MPB      0.649700
      2 O1          1.2870    0.0530    0.0900 o         1 MPB     -0.548000
      3 O2         -0.6790   -0.0510    1.1410 os        1 MPB     -0.440900
      4 CM          0.0610   -0.0840    2.3620 c3        1 MPB      0.128700
      5 C1         -0.7460    0.0540   -1.2430 ca        1 MPB     -0.173600
      6 C2         -0.0800    0.1290   -2.4740 ca        1 MPB     -0.033500
      7 C3         -0.8050    0.1610   -3.6600 ca        1 MPB     -0.205000
      8 C4         -2.2080    0.1170   -3.6090 ca        1 MPB      0.159100
      9 C5         -2.8850    0.0420   -2.3780 ca        1 MPB     -0.205000
     10 C6         -2.1470    0.0110   -1.2020 ca        1 MPB     -0.033500
     11 O4         -2.9900    0.1450   -4.7360 oh        1 MPB     -0.491100
     12 HM1        -0.7320   -0.1420    3.1470 h1        1 MPB      0.050700
     13 HM2         0.6720    0.8450    2.4630 h1        1 MPB      0.050700
     14 HM3         0.7240   -0.9820    2.3810 h1        1 MPB      0.050700
     15 H2          1.0220    0.1620   -2.4910 ha        1 MPB      0.158500
     16 H3         -0.2870    0.2200   -4.6270 ha        1 MPB      0.149500
     17 H5         -3.9840    0.0090   -2.3650 ha        1 MPB      0.149500
     18 H6         -2.6610   -0.0480   -0.2280 ha        1 MPB      0.158500
     19 HO4        -2.4080    0.1970   -5.5080 ho        1 MPB      0.425000
@<TRIPOS>BOND
     1    1    2 2   
     2    1    3 1   
     3    1    5 1   
     4    3    4 1   
     5    4   12 1   
     6    4   13 1   
     7    4   14 1   
     8    5    6 ar  
     9    5   10 ar  
    10    6    7 ar  
    11    6   15 1   
    12    7    8 ar  
    13    7   16 1   
    14    8    9 ar  
    15    8   11 1   
    16    9   10 ar  
    17    9   17 1   
    18   10   18 1   
    19   11   19 1   
@<TRIPOS>SUBSTRUCTURE
     1 MPB         1 TEMP              0 ****  ****    0 ROOT
