@<TRIPOS>MOLECULE
MPC
   52    52     1     0     0
SMALL
bcc


@<TRIPOS>ATOM
      1 C1         -0.0920   -0.7270    0.0400 c3        1 MPC     -0.329600
      2 C2          1.2930   -0.1540    0.0670 c3        1 MPC     -0.069400
      3 C3          2.0340   -0.4570    1.3490 c3        1 MPC     -0.069400
      4 C4          3.4290    0.1320    1.3340 c3        1 MPC     -0.079400
      5 C5          4.1710   -0.1650    2.6200 c3        1 MPC     -0.080400
      6 C6          5.5600    0.4180    2.6080 c3        1 MPC     -0.090100
      7 C7         -0.5040   -1.3900   -3.7310 c3        1 MPC      0.212100
      8 C8          0.2120   -0.5260   -4.7850 c3        1 MPC     -0.103400
      9 C9         -0.3790   -0.7370   -6.1680 c3        1 MPC     -0.065700
     10 C10        -0.3020   -2.2050   -6.5590 c3        1 MPC     -0.069400
     11 C11        -0.9790   -3.0720   -5.5180 c3        1 MPC     -0.073400
     12 C12        -0.3620   -2.8740   -4.1410 c3        1 MPC     -0.064700
     13 C13         0.3310    0.1240   -7.1900 c3        1 MPC     -0.084100
     14 C14        -0.9400   -3.8350   -3.1050 c3        1 MPC     -0.056700
     15 C15        -2.4470   -3.7650   -2.9860 c3        1 MPC     -0.093600
     16 C16        -0.5020   -5.2610   -3.3820 c3        1 MPC     -0.093600
     17 O1          0.0720   -1.1760   -2.4810 os        1 MPC     -0.589200
     18 O2         -0.5140    1.1700   -1.7300 o         1 MPC     -0.863000
     19 P1         -0.8210   -0.2420   -1.4070 p5        1 MPC      1.345600
     20 H11        -0.6840   -0.3690    0.9150 hc        1 MPC      0.062700
     21 H12A       -0.0580   -1.8400    0.1110 hc        1 MPC      0.062700
     22 H21         1.8570   -0.5660   -0.8140 hc        1 MPC      0.061700
     23 H22         1.2160    0.9580   -0.0900 hc        1 MPC      0.061700
     24 H31         1.4610   -0.0430    2.2200 hc        1 MPC      0.026700
     25 H32         2.0960   -1.5670    1.4940 hc        1 MPC      0.026700
     26 H41         4.0020   -0.2850    0.4640 hc        1 MPC      0.039200
     27 H42         3.3650    1.2420    1.1850 hc        1 MPC      0.039200
     28 H51         3.5950    0.2520    3.4880 hc        1 MPC      0.032700
     29 H52         4.2300   -1.2760    2.7680 hc        1 MPC      0.032700
     30 H61         6.1570   -0.0050    1.7640 hc        1 MPC      0.025367
     31 H62         6.0900    0.1890    3.5640 hc        1 MPC      0.025367
     32 H63         5.5200    1.5280    2.4840 hc        1 MPC      0.025367
     33 H7         -1.6010   -1.1190   -3.6960 h1        1 MPC      0.055700
     34 H81         0.1270    0.5550   -4.5020 hc        1 MPC      0.051700
     35 H82         1.3010   -0.7870   -4.7890 hc        1 MPC      0.051700
     36 H9         -1.4650   -0.4360   -6.1380 hc        1 MPC      0.046700
     37 H101       -0.7920   -2.3570   -7.5550 hc        1 MPC      0.021700
     38 H102        0.7730   -2.5070   -6.6620 hc        1 MPC      0.021700
     39 H111       -2.0710   -2.8160   -5.4780 hc        1 MPC      0.031700
     40 H112       -0.8940   -4.1480   -5.8200 hc        1 MPC      0.031700
     41 H12         0.7420   -3.0900   -4.2100 hc        1 MPC      0.037700
     42 H131        1.4140   -0.1430   -7.2440 hc        1 MPC      0.023033
     43 H132        0.2480    1.2020   -6.9100 hc        1 MPC      0.023033
     44 H133       -0.1190   -0.0180   -8.2020 hc        1 MPC      0.023033
     45 H14        -0.5010   -3.5330   -2.1100 hc        1 MPC      0.069700
     46 H151       -2.7660   -2.7280   -2.7040 hc        1 MPC      0.028700
     47 H152       -2.9400   -4.0570   -3.9450 hc        1 MPC      0.028700
     48 H153       -2.7960   -4.4680   -2.1910 hc        1 MPC      0.028700
     49 H161        0.6050   -5.3160   -3.5090 hc        1 MPC      0.028700
     50 H162       -0.7940   -5.9220   -2.5300 hc        1 MPC      0.028700
     51 H163       -0.9850   -5.6570   -4.3080 hc        1 MPC      0.028700
     52 O3         -2.2010   -0.7790   -1.4930 o         1 MPC     -0.863000
@<TRIPOS>BOND
     1    1    2 1   
     2    1   19 1   
     3    1   20 1   
     4    1   21 1   
     5    2    3 1   
     6    2   22 1   
     7    2   23 1   
     8    3    4 1   
     9    3   24 1   
    10    3   25 1   
    11    4    5 1   
    12    4   26 1   
    13    4   27 1   
    14    5    6 1   
    15    5   28 1   
    16    5   29 1   
    17    6   30 1   
    18    6   31 1   
    19    6   32 1   
    20    7    8 1   
    21    7   12 1   
    22    7   17 1   
    23    7   33 1   
    24    8    9 1   
    25    8   34 1   
    26    8   35 1   
    27    9   10 1   
    28    9   13 1   
    29    9   36 1   
    30   10   11 1   
    31   10   37 1   
    32   10   38 1   
    33   11   12 1   
    34   11   39 1   
    35   11   40 1   
    36   12   14 1   
    37   12   41 1   
    38   13   42 1   
    39   13   43 1   
    40   13   44 1   
    41   14   15 1   
    42   14   16 1   
    43   14   45 1   
    44   15   46 1   
    45   15   47 1   
    46   15   48 1   
    47   16   49 1   
    48   16   50 1   
    49   16   51 1   
    50   17   19 1   
    51   18   19 1   
    52   19   52 1   
@<TRIPOS>SUBSTRUCTURE
     1 MPC         1 TEMP              0 ****  ****    0 ROOT
