@<TRIPOS>MOLECULE
molecule
   52    52     1     0     0
SMALL
bcc


@<TRIPOS>ATOM
      1 C1           0.0000     0.0000     0.0000 c3         1 MPC      -0.265600
      2 C2           1.5220     0.0000     0.0000 c3         1 MPC      -0.054400
      3 C3           2.1010     0.0000     1.4160 c3         1 MPC      -0.077400
      4 C4           3.6300    -0.0240     1.3910 c3         1 MPC      -0.081400
      5 C5           4.2090    -0.0560     2.8050 c3         1 MPC      -0.084400
      6 C6           5.7280    -0.1130     2.7840 c3         1 MPC      -0.090100
      7 C7          -0.7440    -1.5960    -3.6820 c3         1 MPC       0.229100
      8 C8          -0.1530    -0.5090    -4.5820 c3         1 MPC      -0.134400
      9 C9          -0.4710    -0.7560    -6.0600 c3         1 MPC      -0.066700
     10 C10         -0.0050    -2.1520    -6.4870 c3         1 MPC      -0.075400
     11 C11         -0.6000    -3.2410    -5.5960 c3         1 MPC      -0.075400
     12 C12         -0.2880    -2.9990    -4.1130 c3         1 MPC      -0.058700
     13 C13          0.1690     0.3180    -6.9370 c3         1 MPC      -0.082100
     14 C14         -0.9300    -4.0960    -3.2600 c3         1 MPC      -0.065700
     15 C15         -2.4470    -4.0770    -3.4210 c3         1 MPC      -0.089600
     16 C16         -0.3630    -5.4620    -3.6320 c3         1 MPC      -0.089600
     17 O1          -0.3230    -1.3210    -2.3470 os         1 MPC      -0.591200
     18 O2          -0.3290     1.2940    -2.4070 o          1 MPC      -0.824500
     19 P1          -0.7150     0.0690    -1.6300 p5         1 MPC       1.178600
     20 H11         -0.3460     0.8570     0.5660 hc         1 MPC       0.062200
     21 H12A        -0.3460    -0.9020     0.4910 hc         1 MPC       0.062200
     22 H21          1.8730     0.8820    -0.5230 hc         1 MPC       0.037700
     23 H22          1.8730    -0.8820    -0.5230 hc         1 MPC       0.037700
     24 H31          1.7410    -0.8740     1.9460 hc         1 MPC       0.032700
     25 H32          1.7680     0.8910     1.9350 hc         1 MPC       0.032700
     26 H41          3.9620    -0.9030     0.8520 hc         1 MPC       0.036700
     27 H42          3.9900     0.8620     0.8810 hc         1 MPC       0.036700
     28 H51          3.8960     0.8340     3.3370 hc         1 MPC       0.034700
     29 H52          3.8290    -0.9290     3.3230 hc         1 MPC       0.034700
     30 H61          6.0480    -1.0110     2.2700 hc         1 MPC       0.026367
     31 H62          6.1140     0.7560     2.2660 hc         1 MPC       0.026367
     32 H63          6.1030    -0.1250     3.8000 hc         1 MPC       0.026367
     33 H7          -1.8250    -1.5460    -3.7340 h1         1 MPC       0.049700
     34 H81         -0.5630     0.4500    -4.2900 hc         1 MPC       0.078700
     35 H82          0.9220    -0.4930    -4.4530 hc         1 MPC       0.078700
     36 H9          -1.5460    -0.7060    -6.1870 hc         1 MPC       0.041700
     37 H101         1.0760    -2.1970    -6.4240 hc         1 MPC       0.026200
     38 H102        -0.3120    -2.3290    -7.5110 hc         1 MPC       0.026200
     39 H111        -1.6740    -3.2570    -5.7310 hc         1 MPC       0.032700
     40 H112        -0.1880    -4.1990    -5.8890 hc         1 MPC       0.032700
     41 H12          0.7870    -3.0530    -3.9850 hc         1 MPC       0.045700
     42 H131         1.2460     0.2800    -6.8260 hc         1 MPC       0.027367
     43 H132        -0.1910     1.2940    -6.6330 hc         1 MPC       0.027367
     44 H133        -0.0930     0.1430    -7.9730 hc         1 MPC       0.027367
     45 H14         -0.6950    -3.9010    -2.2200 hc         1 MPC       0.071700
     46 H151        -2.7020    -4.2750    -4.4550 hc         1 MPC       0.028700
     47 H152        -2.8290    -3.1050    -3.1350 hc         1 MPC       0.028700
     48 H153        -2.8870    -4.8380    -2.7880 hc         1 MPC       0.028700
     49 H161        -0.8380    -5.8150    -4.5390 hc         1 MPC       0.028700
     50 H162         0.7050    -5.3780    -3.7930 hc         1 MPC       0.028700
     51 H163        -0.5530    -6.1630    -2.8280 hc         1 MPC       0.028700
     52 O3          -2.3050    -0.0840    -1.3700 o          1 MPC      -0.824500
@<TRIPOS>BOND
     1     1     2 1
     2     1    19 1
     3     1    20 1
     4     1    21 1
     5     2     3 1
     6     2    22 1
     7     2    23 1
     8     3     4 1
     9     3    24 1
    10     3    25 1
    11     4     5 1
    12     4    26 1
    13     4    27 1
    14     5     6 1
    15     5    28 1
    16     5    29 1
    17     6    30 1
    18     6    31 1
    19     6    32 1
    20     7     8 1
    21     7    12 1
    22     7    17 1
    23     7    33 1
    24     8     9 1
    25     8    34 1
    26     8    35 1
    27     9    10 1
    28     9    13 1
    29     9    36 1
    30    10    11 1
    31    10    37 1
    32    10    38 1
    33    11    12 1
    34    11    39 1
    35    11    40 1
    36    12    14 1
    37    12    41 1
    38    13    42 1
    39    13    43 1
    40    13    44 1
    41    14    15 1
    42    14    16 1
    43    14    45 1
    44    15    46 1
    45    15    47 1
    46    15    48 1
    47    16    49 1
    48    16    50 1
    49    16    51 1
    50    17    19 1
    51    18    19 1
    52    52    19 1
@<TRIPOS>SUBSTRUCTURE
     1 MPC         1 TEMP              0 ****  ****    0 ROOT
