@<TRIPOS>MOLECULE
MPD
   22    21     1     0     0
SMALL
bcc


@<TRIPOS>ATOM
      1 C1          0.0650    0.2240   -0.5610 c3        1 MPD     -0.124600
      2 C2          1.4850   -0.0010   -0.0550 c3        1 MPD      0.148800
      3 O2          1.4690   -0.1680    1.3640 oh        1 MPD     -0.595800
      4 CM          2.0760   -1.2440   -0.7140 c3        1 MPD     -0.124600
      5 C3          2.3930    1.2000   -0.3390 c3        1 MPD     -0.066400
      6 C4          1.9510    2.4780    0.3680 c3        1 MPD      0.142100
      7 O4          3.1510    3.1090    0.8130 oh        1 MPD     -0.602800
      8 C5          1.1850    3.4130   -0.5520 c3        1 MPD     -0.132100
      9 H11        -0.4210    1.0440    0.0200 hc        1 MPD      0.043200
     10 H12         0.0820    0.5020   -1.6410 hc        1 MPD      0.043200
     11 H13        -0.5410   -0.7050   -0.4380 hc        1 MPD      0.043200
     12 HO2         0.9380   -0.9520    1.5450 ho        1 MPD      0.398000
     13 HM1         2.1580   -1.0900   -1.8150 hc        1 MPD      0.043200
     14 HM2         3.0910   -1.4490   -0.2980 hc        1 MPD      0.043200
     15 HM3         1.4260   -2.1310   -0.5210 hc        1 MPD      0.043200
     16 H31         3.4300    0.9470    0.0090 hc        1 MPD      0.063700
     17 H32         2.4250    1.3640   -1.4450 hc        1 MPD      0.063700
     18 H4          1.3200    2.2170    1.2660 h1        1 MPD      0.053700
     19 HO4         2.8850    3.9000    1.2950 ho        1 MPD      0.396000
     20 H51         1.8480    3.7760   -1.3740 hc        1 MPD      0.040700
     21 H52         0.3120    2.8820   -1.0000 hc        1 MPD      0.040700
     22 H53         0.8140    4.2980    0.0190 hc        1 MPD      0.040700
@<TRIPOS>BOND
     1    1    2 1   
     2    1    9 1   
     3    1   10 1   
     4    1   11 1   
     5    2    3 1   
     6    2    4 1   
     7    2    5 1   
     8    3   12 1   
     9    4   13 1   
    10    4   14 1   
    11    4   15 1   
    12    5    6 1   
    13    5   16 1   
    14    5   17 1   
    15    6    7 1   
    16    6    8 1   
    17    6   18 1   
    18    7   19 1   
    19    8   20 1   
    20    8   21 1   
    21    8   22 1   
@<TRIPOS>SUBSTRUCTURE
     1 MPD         1 TEMP              0 ****  ****    0 ROOT
