@<TRIPOS>MOLECULE
molecule
   22    21     1     0     0
SMALL
bcc


@<TRIPOS>ATOM
      1 C1           0.0000     0.0000     0.0000 c3         1 MPD      -0.122600
      2 C2           1.5300     0.0000     0.0000 c3         1 MPD       0.149800
      3 O2           2.0060     0.0000     1.3480 oh         1 MPD      -0.576800
      4 CM           2.0390    -1.2500    -0.7200 c3         1 MPD      -0.122600
      5 C3           2.0410     1.2490    -0.7220 c3         1 MPD      -0.059400
      6 C4           1.5300     2.4980    -0.0000 c3         1 MPD       0.148100
      7 O4           2.1000     2.5590     1.3090 oh         1 MPD      -0.580800
      8 C5           1.9360     3.7440    -0.7900 c3         1 MPD      -0.131100
      9 H11         -0.3610     0.4090    -0.9360 hc         1 MPD       0.041033
     10 H12         -0.3610     0.6060     0.8220 hc         1 MPD       0.041033
     11 H13         -0.3610    -1.0150     0.1130 hc         1 MPD       0.041033
     12 HO2          1.9500    -0.8730     1.7010 ho         1 MPD       0.392000
     13 HM1          1.6740    -2.1340    -0.2120 hc         1 MPD       0.041033
     14 HM2          1.6830    -1.2480    -1.7430 hc         1 MPD       0.041033
     15 HM3          3.1230    -1.2520    -0.7150 hc         1 MPD       0.041033
     16 H31          1.6800     1.2480    -1.7430 hc         1 MPD       0.058700
     17 H32          3.1240     1.2480    -0.7210 hc         1 MPD       0.058700
     18 H4           0.4510     2.4550     0.0770 h1         1 MPD       0.028700
     19 HO4          1.7180     3.2770     1.7850 ho         1 MPD       0.392000
     20 H51          1.5420     4.6260    -0.3000 hc         1 MPD       0.039367
     21 H52          3.0160     3.8070    -0.8350 hc         1 MPD       0.039367
     22 H53          1.5360     3.6800    -1.7950 hc         1 MPD       0.039367
@<TRIPOS>BOND
     1     1     2 1
     2     1     9 1
     3     1    10 1
     4     1    11 1
     5     2     3 1
     6     2     4 1
     7     2     5 1
     8     3    12 1
     9     4    13 1
    10     4    14 1
    11     4    15 1
    12     5     6 1
    13     5    16 1
    14     5    17 1
    15     6     7 1
    16     6     8 1
    17     6    18 1
    18     7    19 1
    19     8    20 1
    20     8    21 1
    21     8    22 1
@<TRIPOS>SUBSTRUCTURE
     1 MPD         1 TEMP              0 ****  ****    0 ROOT
