@<TRIPOS>MOLECULE
molecule
   31    32     1     0     0
SMALL
bcc


@<TRIPOS>ATOM
      1 O9           0.0000     0.0000     0.0000 o          1 MPE      -0.836300
      2 C7           1.2070     0.0000     0.0000 c          1 MPE       0.877600
      3 O8           1.8770    -0.0020    -1.1630 o          1 MPE      -0.836300
      4 C6           1.9620     0.0000     1.3040 c3         1 MPE       0.101700
      5 N5           3.2460     0.6920     1.1280 n7         1 MPE      -0.565700
      6 O4           3.0070     2.1030     1.4260 os         1 MPE      -0.255100
      7 C3           4.2540     2.7790     1.2550 c3         1 MPE       0.148400
      8 C2           4.0750     4.2680     1.5530 c3         1 MPE       0.045700
      9 S1           5.6590     5.1250     1.3350 sh         1 MPE      -0.447900
     10 C10          2.2120    -1.4200     1.7400 cc         1 MPE      -0.073400
     11 C11          3.2790    -2.1730     1.4310 cd         1 MPE      -0.106100
     12 N12          3.1600    -3.4090     2.0060 na         1 MPE      -0.195400
     13 C13          1.9830    -3.4830     2.7170 ca         1 MPE      -0.045200
     14 C15          1.3830    -4.4830     3.4750 ca         1 MPE      -0.161000
     15 C14          1.3410    -2.2380     2.5860 ca         1 MPE      -0.082800
     16 C18          0.1090    -2.0230     3.2040 ca         1 MPE      -0.052000
     17 C17         -0.4640    -3.0190     3.9440 ca         1 MPE      -0.183000
     18 C16          0.1690    -4.2480     4.0810 ca         1 MPE      -0.123000
     19 H6           1.3780     0.5110     2.0590 h1         1 MPE       0.076700
     20 H5           3.5480     0.5980     0.1780 hn         1 MPE       0.375800
     21 H31          4.9880     2.3610     1.9330 h1         1 MPE       0.038700
     22 H32          4.5950     2.6540     0.2340 h1         1 MPE       0.038700
     23 H21          3.7340     4.3930     2.5740 h1         1 MPE       0.063700
     24 H22          3.3410     4.6860     0.8750 h1         1 MPE       0.063700
     25 H1           5.5020     6.4170     1.5950 hs         1 MPE       0.207800
     26 H11          4.1110    -1.8500     0.8170 h4         1 MPE       0.173000
     27 H12          3.8280    -4.1490     1.9220 hn         1 MPE       0.278700
     28 H15          1.8690    -5.4450     3.5880 ha         1 MPE       0.107000
     29 H18         -0.3900    -1.0670     3.1020 ha         1 MPE       0.145000
     30 H17         -1.4190    -2.8500     4.4270 ha         1 MPE       0.114000
     31 H16         -0.2970    -5.0280     4.6700 ha         1 MPE       0.109000
@<TRIPOS>BOND
     1     1     2 1
     2     2     3 1
     3     2     4 1
     4     4     5 1
     5     4    10 1
     6     4    19 1
     7     5     6 1
     8     5    20 1
     9     6     7 1
    10     7     8 1
    11     7    21 1
    12     7    22 1
    13     8     9 1
    14     8    23 1
    15     8    24 1
    16     9    25 1
    17    10    11 2
    18    10    15 1
    19    11    12 1
    20    11    26 1
    21    12    13 1
    22    12    27 1
    23    13    14 ar
    24    13    15 ar
    25    14    18 ar
    26    14    28 1
    27    15    16 ar
    28    16    17 ar
    29    16    29 1
    30    17    18 ar
    31    17    30 1
    32    18    31 1
@<TRIPOS>SUBSTRUCTURE
     1 MPE         1 TEMP              0 ****  ****    0 ROOT
