@<TRIPOS>MOLECULE
molecule
   65    64     1     0     0
SMALL
bcc


@<TRIPOS>ATOM
      1 C2           0.0000     0.0000     0.0000 c3         1 MPG      -0.085400
      2 C3           1.5300     0.0000     0.0000 c3         1 MPG      -0.079400
      3 C4           2.0390     0.0000     1.4430 c3         1 MPG      -0.079400
      4 C5           3.5690     0.0000     1.4440 c3         1 MPG      -0.080400
      5 C6           4.0780     0.0010     2.8870 c3         1 MPG      -0.087400
      6 C7           5.6080     0.0000     2.8870 c3         1 MPG      -0.034400
      7 C8           6.1180     0.0010     4.3300 c3         1 MPG      -0.149200
      8 C9           7.6250     0.0020     4.3310 c2         1 MPG      -0.338200
      9 C10          8.2790     0.9000     5.0240 c2         1 MPG      -0.344200
     10 C11          7.5360     1.8260     5.9510 c3         1 MPG      -0.145200
     11 C12          8.1520     1.7500     7.3490 c3         1 MPG      -0.034400
     12 C13          7.3960     2.6890     8.2910 c3         1 MPG      -0.087400
     13 C14          8.0140     2.6130     9.6890 c3         1 MPG      -0.080400
     14 C15          7.2580     3.5530    10.6310 c3         1 MPG      -0.082400
     15 C16          7.8740     3.4770    12.0300 c3         1 MPG      -0.081400
     16 C17          7.1190     4.4160    12.9730 c3         1 MPG      -0.084400
     17 C18          7.7360     4.3400    14.3700 c3         1 MPG      -0.092100
     18 O1          -1.9620    -0.0010    -1.4430 os         1 MPG      -0.437900
     19 C1          -0.5100    -0.0010    -1.4430 c3         1 MPG       0.147400
     20 CXD         -4.0760    -0.0010    -2.7190 c3         1 MPG       0.111100
     21 O2          -4.4800    -0.1190    -4.0850 oh         1 MPG      -0.561800
     22 C21         -4.6170     1.3060    -2.1380 c3         1 MPG       0.143400
     23 O3          -6.0450     1.2580    -2.1060 oh         1 MPG      -0.604800
     24 O4          -1.9120    -0.0010    -3.6530 o          1 MPG      -0.517000
     25 CX3         -2.5710    -0.0010    -2.6400 c          1 MPG       0.601100
     26 H21C        -0.3610     0.8850     0.5100 hc         1 MPG       0.053200
     27 H22C        -0.3610    -0.8840     0.5110 hc         1 MPG       0.053200
     28 H31C         1.8910    -0.8850    -0.5110 hc         1 MPG       0.046200
     29 H32C         1.8910     0.8850    -0.5110 hc         1 MPG       0.046200
     30 H41C         1.6780     0.8840     1.9540 hc         1 MPG       0.043200
     31 H42C         1.6780    -0.8850     1.9540 hc         1 MPG       0.043200
     32 H51C         3.9300     0.8850     0.9330 hc         1 MPG       0.046200
     33 H52C         3.9300    -0.8840     0.9340 hc         1 MPG       0.046200
     34 H61C         3.7180     0.8860     3.3970 hc         1 MPG       0.040700
     35 H62C         3.7170    -0.8830     3.3980 hc         1 MPG       0.040700
     36 H71C         5.9690    -0.8850     2.3770 hc         1 MPG       0.058700
     37 H72C         5.9700     0.8840     2.3760 hc         1 MPG       0.058700
     38 H81C         5.7560    -0.8830     4.8410 hc         1 MPG       0.034200
     39 H82C         5.7560     0.8860     4.8400 hc         1 MPG       0.034200
     40 H9           7.0670    -0.4850     5.1220 ha         1 MPG       0.331000
     41 H10          7.8150     1.8060     4.6530 ha         1 MPG       0.331000
     42 H111         7.6050     2.8410     5.5800 hc         1 MPG       0.033700
     43 H112         6.4950     1.5290     5.9990 hc         1 MPG       0.033700
     44 H121         9.1930     2.0470     7.3020 hc         1 MPG       0.058200
     45 H122         8.0840     0.7350     7.7200 hc         1 MPG       0.058200
     46 H131         7.4650     3.7050     7.9210 hc         1 MPG       0.040700
     47 H132         6.3560     2.3920     8.3400 hc         1 MPG       0.040700
     48 H141         9.0540     2.9110     9.6410 hc         1 MPG       0.045200
     49 H142         7.9450     1.5980    10.0600 hc         1 MPG       0.045200
     50 H151         6.2170     3.2550    10.6790 hc         1 MPG       0.040700
     51 H152         7.3270     4.5680    10.2610 hc         1 MPG       0.040700
     52 H161         7.8060     2.4610    12.4000 hc         1 MPG       0.042200
     53 H162         8.9150     3.7740    11.9820 hc         1 MPG       0.042200
     54 H171         6.0780     4.1190    13.0210 hc         1 MPG       0.039700
     55 H172         7.1880     5.4320    12.6020 hc         1 MPG       0.039700
     56 H181         7.2020     5.0050    15.0380 hc         1 MPG       0.033033
     57 H182         7.6680     3.3250    14.7410 hc         1 MPG       0.033033
     58 H183         8.7770     4.6380    14.3220 hc         1 MPG       0.033033
     59 HX31        -0.1490    -0.8860    -1.9530 h1         1 MPG       0.051700
     60 HX32        -0.1480     0.8830    -1.9540 h1         1 MPG       0.051700
     61 HXD         -4.4670    -0.8380    -2.1530 h1         1 MPG       0.068700
     62 H2          -4.7700    -1.0000    -4.2520 ho         1 MPG       0.412000
     63 H211        -4.2970     2.1360    -2.7570 h1         1 MPG       0.042200
     64 H212        -4.2370     1.4380    -1.1320 h1         1 MPG       0.042200
     65 H3          -6.3770     2.0440    -1.7050 ho         1 MPG       0.409000
@<TRIPOS>BOND
     1     1     2 1
     2     1    19 1
     3     2     3 1
     4     3     4 1
     5     4     5 1
     6     5     6 1
     7     6     7 1
     8     7     8 1
     9     8     9 2
    10     9    10 1
    11    10    11 1
    12    11    12 1
    13    12    13 1
    14    13    14 1
    15    14    15 1
    16    15    16 1
    17    16    17 1
    18    18    19 1
    19    18    25 1
    20    20    21 1
    21    20    22 1
    22    20    25 1
    23    22    23 1
    24     1    26 1
    25     1    27 1
    26     2    28 1
    27     2    29 1
    28    25    24 2
    29     3    30 1
    30     3    31 1
    31     4    32 1
    32     4    33 1
    33     5    34 1
    34     5    35 1
    35     6    36 1
    36     6    37 1
    37     7    38 1
    38     7    39 1
    39     8    40 1
    40     9    41 1
    41    10    42 1
    42    10    43 1
    43    11    44 1
    44    11    45 1
    45    12    46 1
    46    12    47 1
    47    13    48 1
    48    13    49 1
    49    14    50 1
    50    14    51 1
    51    15    52 1
    52    15    53 1
    53    16    54 1
    54    16    55 1
    55    17    56 1
    56    17    57 1
    57    17    58 1
    58    19    59 1
    59    19    60 1
    60    20    61 1
    61    21    62 1
    62    22    63 1
    63    22    64 1
    64    23    65 1
@<TRIPOS>SUBSTRUCTURE
     1 MPG         1 TEMP              0 ****  ****    0 ROOT
