@<TRIPOS>MOLECULE
MPG
   65    64     1     0     0
SMALL
bcc


@<TRIPOS>ATOM
      1 C2          0.2060    0.1100   -0.3130 c3        1 MPG     -0.086400
      2 C3          1.7000   -0.0290   -0.1140 c3        1 MPG     -0.080400
      3 C4          2.0970   -0.0310    1.3460 c3        1 MPG     -0.076400
      4 C5          1.6550   -1.2590    2.1140 c3        1 MPG     -0.078400
      5 C6          2.2210   -2.5420    1.5440 c3        1 MPG     -0.080400
      6 C7          2.0660   -3.6980    2.5100 c3        1 MPG     -0.071400
      7 C8          2.5990   -4.9910    1.9230 c3        1 MPG     -0.053200
      8 C9          4.0730   -4.9650    1.7610 c2        1 MPG     -0.170200
      9 C10         4.7440   -5.2910    0.6530 c2        1 MPG     -0.167200
     10 C11         4.1420   -5.7330   -0.6290 c3        1 MPG     -0.046200
     11 C12         3.6710   -4.5660   -1.4770 c3        1 MPG     -0.075400
     12 C13         4.8260   -3.8060   -2.0930 c3        1 MPG     -0.078400
     13 C14         4.3370   -2.5940   -2.8570 c3        1 MPG     -0.076400
     14 C15         5.4840   -1.8530   -3.5080 c3        1 MPG     -0.080400
     15 C16         4.9970   -0.6380   -4.2680 c3        1 MPG     -0.078400
     16 C17         6.1450    0.1040   -4.9180 c3        1 MPG     -0.080400
     17 C18         5.6640    1.3150   -5.6750 c3        1 MPG     -0.093100
     18 O1          0.0320   -1.2440   -2.2480 os        1 MPG     -0.449900
     19 C1         -0.1670    0.1060   -1.7820 c3        1 MPG      0.140400
     20 O11        -0.6110   -0.5600   -4.2830 o         1 MPG     -0.539000
     21 CXD         0.0560   -2.9090   -3.9940 c3        1 MPG      0.063100
     22 O2         -0.7010   -3.2290   -5.1440 oh        1 MPG     -0.579800
     23 C21        -0.3230   -3.9330   -2.9130 c3        1 MPG      0.143400
     24 O3          0.6980   -4.0410   -1.9480 oh        1 MPG     -0.596800
     25 CX3        -0.2200   -1.4830   -3.5650 c         1 MPG      0.593100
     26 H22        -0.1550    1.0740    0.1320 hc        1 MPG      0.057200
     27 H21        -0.3250   -0.7310    0.2070 hc        1 MPG      0.057200
     28 H32         2.0510   -0.9750   -0.6080 hc        1 MPG      0.045200
     29 H31         2.2190    0.8240   -0.6270 hc        1 MPG      0.045200
     30 H42         3.2160    0.0510    1.4080 hc        1 MPG      0.040200
     31 H41         1.6690    0.8780    1.8460 hc        1 MPG      0.040200
     32 H52         1.9870   -1.1470    3.1810 hc        1 MPG      0.038700
     33 H51         0.5340   -1.3190    2.1250 hc        1 MPG      0.038700
     34 H62         3.3090   -2.4070    1.3020 hc        1 MPG      0.043200
     35 H61         1.6970   -2.7900    0.5820 hc        1 MPG      0.043200
     36 H72         2.6040   -3.4660    3.4660 hc        1 MPG      0.038200
     37 H71         0.9810   -3.8310    2.7620 hc        1 MPG      0.038200
     38 H82         2.3330   -5.8400    2.6120 hc        1 MPG      0.050700
     39 H81         2.0910   -5.1860    0.9410 hc        1 MPG      0.050700
     40 H9          4.6250   -4.6490    2.6630 ha        1 MPG      0.115000
     41 H10         5.8470   -5.2350    0.6500 ha        1 MPG      0.115000
     42 H112        4.8960   -6.3330   -1.2080 hc        1 MPG      0.044700
     43 H111        3.2680   -6.4100   -0.4300 hc        1 MPG      0.044700
     44 H122        3.0540   -3.8720   -0.8450 hc        1 MPG      0.048200
     45 H121        2.9940   -4.9470   -2.2880 hc        1 MPG      0.048200
     46 H132        5.5350   -3.4820   -1.2860 hc        1 MPG      0.039200
     47 H131        5.3960   -4.4810   -2.7840 hc        1 MPG      0.039200
     48 H142        3.7910   -1.9050   -2.1590 hc        1 MPG      0.035200
     49 H141        3.6020   -2.9160   -3.6420 hc        1 MPG      0.035200
     50 H152        6.0270   -2.5410   -4.2090 hc        1 MPG      0.040700
     51 H151        6.2200   -1.5350   -2.7230 hc        1 MPG      0.040700
     52 H162        4.4540    0.0510   -3.5680 hc        1 MPG      0.037700
     53 H161        4.2630   -0.9550   -5.0540 hc        1 MPG      0.037700
     54 H172        6.6880   -0.5860   -5.6160 hc        1 MPG      0.038700
     55 H171        6.8790    0.4200   -4.1300 hc        1 MPG      0.038700
     56 H183        5.1420    2.0270   -4.9910 hc        1 MPG      0.032367
     57 H182        4.9500    1.0180   -6.4810 hc        1 MPG      0.032367
     58 H181        6.5260    1.8460   -6.1460 hc        1 MPG      0.032367
     59 H12A        0.4810    0.7920   -2.3860 h1        1 MPG      0.056700
     60 H11        -1.2440    0.3770   -1.9370 h1        1 MPG      0.056700
     61 H12         1.1600   -2.9810   -4.2200 h1        1 MPG      0.080700
     62 H2         -0.6420   -2.4780   -5.7520 ho        1 MPG      0.428000
     63 H212       -1.2990   -3.6500   -2.4420 h1        1 MPG      0.068200
     64 H211       -0.4010   -4.9520   -3.3790 h1        1 MPG      0.068200
     65 H3          0.7480   -3.1990   -1.4740 ho        1 MPG      0.417000
@<TRIPOS>BOND
     1    1    2 1   
     2    1   19 1   
     3    1   26 1   
     4    1   27 1   
     5    2    3 1   
     6    2   28 1   
     7    2   29 1   
     8    3    4 1   
     9    3   30 1   
    10    3   31 1   
    11    4    5 1   
    12    4   32 1   
    13    4   33 1   
    14    5    6 1   
    15    5   34 1   
    16    5   35 1   
    17    6    7 1   
    18    6   36 1   
    19    6   37 1   
    20    7    8 1   
    21    7   38 1   
    22    7   39 1   
    23    8    9 2   
    24    8   40 1   
    25    9   10 1   
    26    9   41 1   
    27   10   11 1   
    28   10   42 1   
    29   10   43 1   
    30   11   12 1   
    31   11   44 1   
    32   11   45 1   
    33   12   13 1   
    34   12   46 1   
    35   12   47 1   
    36   13   14 1   
    37   13   48 1   
    38   13   49 1   
    39   14   15 1   
    40   14   50 1   
    41   14   51 1   
    42   15   16 1   
    43   15   52 1   
    44   15   53 1   
    45   16   17 1   
    46   16   54 1   
    47   16   55 1   
    48   17   56 1   
    49   17   57 1   
    50   17   58 1   
    51   18   19 1   
    52   18   25 1   
    53   19   59 1   
    54   19   60 1   
    55   20   25 2   
    56   21   22 1   
    57   21   23 1   
    58   21   25 1   
    59   21   61 1   
    60   22   62 1   
    61   23   24 1   
    62   23   63 1   
    63   23   64 1   
    64   24   65 1   
@<TRIPOS>SUBSTRUCTURE
     1 MPG         1 TEMP              0 ****  ****    0 ROOT
