@<TRIPOS>MOLECULE
MPI
   16    17     1     0     0
SMALL
bcc


@<TRIPOS>ATOM
      1 N1         -0.0540    0.0070   -0.0030 na        1 MPI      0.050700
      2 C2          1.3600    0.0130   -0.0030 ca        1 MPI      0.027500
      3 C3          2.0890    0.0010    1.2190 ca        1 MPI     -0.135000
      4 C4          1.3710   -0.0160    2.3970 ca        1 MPI     -0.028000
      5 C5         -0.0480   -0.0220    2.3820 ca        1 MPI     -0.134000
      6 C6         -0.7450   -0.0110    1.1880 ca        1 MPI     -0.036300
      7 N7          1.7790    0.0300   -1.3260 na        1 MPI     -0.151400
      8 C8          0.6470    0.0360   -2.1510 cc        1 MPI     -0.058100
      9 C9         -0.4930    0.0210   -1.3440 cd        1 MPI     -0.156100
     10 H3          3.1900    0.0060    1.1950 ha        1 MPI      0.194000
     11 H4          1.8990   -0.0260    3.3680 ha        1 MPI      0.191000
     12 H5         -0.6080   -0.0360    3.3330 ha        1 MPI      0.198000
     13 H6         -1.8500   -0.0150    1.1190 h4        1 MPI      0.210000
     14 HN7         2.7270    0.0380   -1.6230 hn        1 MPI      0.359700
     15 H8          0.7260    0.0490   -3.2450 h4        1 MPI      0.234000
     16 H9         -1.5550    0.0200   -1.6100 h4        1 MPI      0.234000
@<TRIPOS>BOND
     1    1    2 1   
     2    1    6 2   
     3    1    9 1   
     4    2    3 ar  
     5    2    7 1   
     6    3    4 ar  
     7    3   10 1   
     8    4    5 ar  
     9    4   11 1   
    10    5    6 ar  
    11    5   12 1   
    12    6   13 1   
    13    7    8 1   
    14    7   14 1   
    15    8    9 2   
    16    8   15 1   
    17    9   16 1   
@<TRIPOS>SUBSTRUCTURE
     1 MPI         1 TEMP              0 ****  ****    0 ROOT
