@<TRIPOS>MOLECULE
molecule
   16    17     1     0     0
SMALL
bcc


@<TRIPOS>ATOM
      1 N1           0.0000     0.0000     0.0000 na         1 MPI       0.122700
      2 C2           1.3350     0.0000     0.0000 ca         1 MPI       0.018500
      3 C3           2.0440     0.0000     1.2010 ca         1 MPI      -0.139000
      4 C4           1.3470    -0.0110     2.3920 ca         1 MPI      -0.027000
      5 C5          -0.0460    -0.0170     2.3500 ca         1 MPI      -0.123000
      6 C6          -0.6850    -0.0110     1.1470 ca         1 MPI      -0.059300
      7 N7           1.7600     0.0170    -1.3110 na         1 MPI      -0.148400
      8 C8           0.6370     0.0190    -2.1000 cc         1 MPI      -0.049100
      9 C9          -0.4300     0.0080    -1.2910 cd         1 MPI      -0.197100
     10 H3           3.1270     0.0050     1.1990 ha         1 MPI       0.189000
     11 H4           1.8720    -0.0160     3.3400 ha         1 MPI       0.190000
     12 H5          -0.6180    -0.0260     3.2690 ha         1 MPI       0.196000
     13 H6          -1.7680    -0.0150     1.1200 h4         1 MPI       0.206000
     14 HN7          2.7090     0.0230    -1.6280 hn         1 MPI       0.362700
     15 H8           0.6180    -0.0590    -3.1810 h4         1 MPI       0.232000
     16 H9          -1.4650     0.0060    -1.6120 h4         1 MPI       0.229000
@<TRIPOS>BOND
     1     1     2 1
     2     1     6 2
     3     1     9 1
     4     2     3 ar
     5     2     7 1
     6     3     4 ar
     7     3    10 1
     8     4     5 ar
     9     4    11 1
    10     5     6 ar
    11     5    12 1
    12     6    13 1
    13     7     8 1
    14     7    14 1
    15     8     9 2
    16     8    15 1
    17     9    16 1
@<TRIPOS>SUBSTRUCTURE
     1 MPI         1 TEMP              0 ****  ****    0 ROOT
