@<TRIPOS>MOLECULE
MPK
   25    26     1     0     0
SMALL
bcc


@<TRIPOS>ATOM
      1 C1         -0.0240   -0.0380   -0.1270 c3        1 MPK     -0.140400
      2 C2          1.4250   -0.0170    0.0640 cc        1 MPK      0.289000
      3 C3          2.2780   -0.0030    1.1530 cd        1 MPK     -0.316900
      4 C4          1.9350    0.0490    2.5840 c3        1 MPK      0.206700
      5 O5          1.8170   -1.2830    3.0770 oh        1 MPK     -0.597800
      6 C6          3.6240   -0.0000    0.5610 cd        1 MPK      0.392800
      7 N7          3.5000    0.0000   -0.7850 nc        1 MPK     -0.357300
      8 O8          2.2220   -0.0080   -1.1040 os        1 MPK     -0.118100
      9 C9          4.8820   -0.0010    1.2910 ca        1 MPK     -0.138500
     10 C10         5.0150   -0.7740    2.4530 ca        1 MPK     -0.102500
     11 C11         6.2200   -0.7780    3.1520 ca        1 MPK     -0.138500
     12 C12         7.2970   -0.0160    2.7000 ca        1 MPK     -0.117000
     13 C13         7.1700    0.7500    1.5410 ca        1 MPK     -0.138500
     14 C14         5.9680    0.7580    0.8340 ca        1 MPK     -0.102500
     15 H1         -0.5280    0.4530    0.7430 hc        1 MPK      0.067367
     16 H2         -0.3810   -1.0990   -0.1970 hc        1 MPK      0.067367
     17 H3         -0.3080    0.4940   -1.0690 hc        1 MPK      0.067367
     18 H4          2.7410    0.5910    3.1530 h1        1 MPK      0.036200
     19 H5          0.9550    0.5860    2.7270 h1        1 MPK      0.036200
     20 H6          1.6150   -1.2040    4.0170 ho        1 MPK      0.401000
     21 H7          4.1630   -1.3830    2.8020 ha        1 MPK      0.151000
     22 H8          6.3220   -1.3900    4.0610 ha        1 MPK      0.134500
     23 H9          8.2470   -0.0220    3.2540 ha        1 MPK      0.132000
     24 H10         8.0200    1.3480    1.1800 ha        1 MPK      0.134500
     25 H11         5.8750    1.3570   -0.0850 ha        1 MPK      0.151000
@<TRIPOS>BOND
     1    1    2 1
     2    1   15 1
     3    1   16 1
     4    1   17 1
     5    2    3 2
     6    2    8 1
     7    3    4 1
     8    3    6 1
     9    4    5 1
    10    4   18 1
    11    4   19 1
    12    5   20 1
    13    6    7 2
    14    6    9 1
    15    7    8 1
    16    9   10 ar
    17    9   14 ar
    18   10   11 ar
    19   10   21 1
    20   11   12 ar
    21   11   22 1
    22   12   13 ar
    23   12   23 1
    24   13   14 ar
    25   13   24 1
    26   14   25 1
@<TRIPOS>SUBSTRUCTURE
     1 MPK         1 TEMP              0 ****  ****    0 ROOT
