@<TRIPOS>MOLECULE
MPM
   40    41     1     0     0
SMALL
bcc


@<TRIPOS>ATOM
      1 C4           0.0000     0.0000     0.0000 c3         1 MPM      -0.157000
      2 C3           1.4050     0.0000     0.0000 c2         1 MPM       0.009000
      3 C5          -0.6580     0.0050     1.2350 c2         1 MPM      -0.028000
      4 C4A         -0.7590     0.0000    -1.2660 c2         1 MPM      -0.370000
      5 C2           2.0740     0.0000     1.2160 c2         1 MPM      -0.204000
      6 C6           0.0900    -0.0000     2.3930 c2         1 MPM      -0.124000
      7 O1           2.0950     0.0000    -1.1680 oh         1 MPM      -0.181000
      8 C5A         -2.1650     0.0060     1.2970 c3         1 MPM       0.115000
      9 N2          -0.1310     0.0010    -2.3970 n2         1 MPM       0.159000
     10 N1           1.4080    -0.0000     2.3520 n2         1 MPM      -0.107000
     11 C2A          3.5800     0.0010     1.2350 c3         1 MPM      -0.039000
     12 O2          -2.5840    -0.0010     2.6640 os         1 MPM      -0.638000
     13 C           -0.8840     0.0010    -3.6520 c3         1 MPM      -0.433000
     14 P1          -4.1940     0.0000     2.6560 p5         1 MPM       0.910500
     15 CA2         -1.7660     1.2510    -3.7190 c3         1 MPM      -0.052000
     16 CA1         -1.7650    -1.2480    -3.7200 c3         1 MPM      -0.100000
     17 P2           0.2770     0.0020    -5.0580 p5         1 MPM       0.861500
     18 O3          -4.6830     1.1470     1.8580 o          1 MPM      -0.772833
     19 O5          -4.7290    -1.3730     2.0050 o          1 MPM      -0.772833
     20 O4          -4.7380     0.1260     4.1650 o          1 MPM      -0.772833
     21 O8           1.0190    -1.4240    -5.1410 o          1 MPM      -0.754500
     22 O6          -0.5330     0.2670    -6.4230 o          1 MPM      -0.754500
     23 O7           1.2820     1.0720    -4.8660 o          1 MPM      -0.754500
     24 CA3         -0.8800     2.4970    -3.7770 c3         1 MPM      -0.145000
     25 H4AC        -0.2850    -0.8740    -0.8370 DU         1 MPM       0.251000
     26 HC6         -0.4140     0.0020     3.3530 h4         1 MPM       0.151000
     27 HO1          2.5880    -0.8000    -1.2410 ho         1 MPM       0.172000
     28 H5A1        -2.5480    -0.8760     0.7980 h1         1 MPM       0.082500
     29 H5A2        -2.5470     0.8930     0.8070 h1         1 MPM       0.082500
     30 H2A1         3.9470    -0.9410     0.8440 hc         1 MPM       0.024000
     31 H2A2         3.9280     0.1290     2.2530 hc         1 MPM       0.024000
     32 H2A3         3.9490     0.8150     0.6230 hc         1 MPM       0.024000
     33 HA21        -2.3960     1.2960    -2.8380 hc         1 MPM       0.041000
     34 HA22        -2.3870     1.2080    -4.6050 hc         1 MPM       0.041000
     35 HA11        -1.1800    -2.1180    -3.4450 hc         1 MPM       0.028000
     36 HA12        -2.1420    -1.3700    -4.7280 hc         1 MPM       0.028000
     37 HA13        -2.5970    -1.1410    -3.0340 hc         1 MPM       0.028000
     38 HA31        -0.6510     2.7300    -4.8100 hc         1 MPM       0.042667
     39 HA32         0.0410     2.3110    -3.2360 hc         1 MPM       0.042667
     40 HA33        -1.4010     3.3320    -3.3250 hc         1 MPM       0.042667
@<TRIPOS>BOND
     1     1     2 1   
     2     1     3 1   
     3     1     4 1   
     4     1    25 1   
     5     2     5 1   
     6     2     7 1   
     7     3     6 1   
     8     3     8 1   
     9     4     9 1   
    10     4    25 1   
    11     5    10 1   
    12     5    11 1   
    13     6    10 1   
    14     6    26 1   
    15     7    27 1   
    16     8    12 1   
    17     8    28 1   
    18     8    29 1   
    19     9    13 1   
    20    11    30 1   
    21    11    31 1   
    22    11    32 1   
    23    12    14 1   
    24    13    15 1   
    25    13    16 1   
    26    13    17 1   
    27    14    18 1   
    28    14    19 1   
    29    14    20 1   
    30    15    24 1   
    31    15    33 1   
    32    15    34 1   
    33    16    35 1   
    34    16    36 1   
    35    16    37 1   
    36    17    21 1   
    37    17    22 1   
    38    17    23 1   
    39    24    38 1   
    40    24    39 1   
    41    24    40 1   
@<TRIPOS>SUBSTRUCTURE
     1 MPM         1 TEMP              0 ****  ****    0 ROOT
