@<TRIPOS>MOLECULE
molecule
   40    40     1     0     0
SMALL
bcc


@<TRIPOS>ATOM
      1 C4           0.0000     0.0000     0.0000 ca         1 MPM      -0.098900
      2 C3           1.4050     0.0000     0.0000 ca         1 MPM       0.012800
      3 C5          -0.6580     0.0050     1.2350 ca         1 MPM      -0.150600
      4 C4A         -0.7590     0.0000    -1.2660 ce         1 MPM       0.361800
      5 C2           2.0740     0.0000     1.2160 ca         1 MPM       0.305600
      6 C6           0.0900    -0.0000     2.3930 ca         1 MPM       0.395200
      7 O1           2.0950     0.0000    -1.1680 oh         1 MPM      -0.459100
      8 C5A         -2.1650     0.0060     1.2970 c3         1 MPM       0.190700
      9 N2          -0.1310     0.0010    -2.3970 n2         1 MPM      -0.460900
     10 N1           1.4080    -0.0000     2.3520 nb         1 MPM      -0.743000
     11 C2A          3.5800     0.0010     1.2350 c3         1 MPM      -0.119400
     12 O2          -2.5840    -0.0010     2.6640 os         1 MPM      -0.560200
     13 C           -0.8840     0.0010    -3.6520 c3         1 MPM      -0.022000
     14 P1          -4.1940     0.0000     2.6560 p5         1 MPM       1.171900
     15 CA2         -1.7660     1.2510    -3.7190 c3         1 MPM      -0.057400
     16 CA1         -1.7650    -1.2480    -3.7200 c3         1 MPM      -0.066100
     17 P2           0.2770     0.0020    -5.0580 p5         1 MPM       1.094700
     18 O3          -4.6830     1.1470     1.8580 o          1 MPM      -0.920833
     19 O5          -4.7290    -1.3730     2.0050 o          1 MPM      -0.920833
     20 O4          -4.7380     0.1260     4.1650 o          1 MPM      -0.920833
     21 O8           1.0190    -1.4240    -5.1410 o          1 MPM      -0.927167
     22 O6          -0.5330     0.2670    -6.4230 o          1 MPM      -0.927167
     23 O7           1.2820     1.0720    -4.8660 o          1 MPM      -0.927167
     24 CA3         -0.8800     2.4970    -3.7770 c3         1 MPM      -0.093100
     25 H4AC        -1.8420    -0.0000    -1.2480 h4         1 MPM      -0.009200
     26 HC6         -0.4140     0.0020     3.3530 h4         1 MPM       0.048100
     27 HO1          2.4980    -0.8430    -1.2950 ho         1 MPM       0.406000
     28 H5A1        -2.5480    -0.8760     0.7980 h1         1 MPM       0.068700
     29 H5A2        -2.5470     0.8930     0.8070 h1         1 MPM       0.068700
     30 H2A1         3.9470    -0.9400     0.8420 hc         1 MPM       0.022367
     31 H2A2         3.9280     0.1270     2.2540 hc         1 MPM       0.022367
     32 H2A3         3.9490     0.8160     0.6240 hc         1 MPM       0.022367
     33 HA21        -2.3870     1.2080    -4.6050 hc         1 MPM       0.020200
     34 HA22        -2.3950     1.2960    -2.8380 hc         1 MPM       0.020200
     35 HA11        -1.9810    -1.4820    -4.7550 hc         1 MPM       0.019367
     36 HA12        -1.2460    -2.0810    -3.2620 hc         1 MPM       0.019367
     37 HA13        -2.6920    -1.0650    -3.1900 hc         1 MPM       0.019367
     38 HA31         0.0370     2.3140    -3.2290 hc         1 MPM       0.031700
     39 HA32        -1.4040     3.3340    -3.3330 hc         1 MPM       0.031700
     40 HA33        -0.6440     2.7250    -4.8090 hc         1 MPM       0.031700
@<TRIPOS>BOND
     1     1     2 ar
     2     1     3 ar
     3     1     4 1
     4     2     5 ar
     5     2     7 1
     6     3     6 ar
     7     3     8 1
     8     4     9 2
     9     4    25 1
    10     5    10 ar
    11     5    11 1
    12     6    10 ar
    13     6    26 1
    14     7    27 1
    15     8    12 1
    16     8    28 1
    17     8    29 1
    18     9    13 1
    19    11    30 1
    20    11    31 1
    21    11    32 1
    22    12    14 1
    23    13    15 1
    24    13    16 1
    25    13    17 1
    26    14    18 1
    27    14    19 1
    28    14    20 1
    29    15    24 1
    30    15    33 1
    31    15    34 1
    32    16    35 1
    33    16    36 1
    34    16    37 1
    35    17    21 1
    36    17    22 1
    37    17    23 1
    38    24    38 1
    39    24    39 1
    40    24    40 1
@<TRIPOS>SUBSTRUCTURE
     1 MPM         1 TEMP              0 ****  ****    0 ROOT
