@<TRIPOS>MOLECULE
molecule
   35    37     1     0     0
SMALL
bcc


@<TRIPOS>ATOM
      1 O3P          0.0000     0.0000     0.0000 o          1 MPN      -0.771500
      2 P            1.6100     0.0000     0.0000 p5         1 MPN       1.189900
      3 O1P          2.1470     0.0000     1.5180 o          1 MPN      -0.771500
      4 O2P          2.1030     1.2090    -0.6970 o          1 MPN      -0.771500
      5 O4'          2.1470    -1.3140    -0.7590 os         1 MPN      -0.570200
      6 C4'          3.5330    -1.5520    -1.0170 c3         1 MPN       0.231400
      7 C3'          3.6920    -2.8850    -1.7520 c3         1 MPN       0.118100
      8 C2'          2.8400    -2.8910    -3.0060 cs         1 MPN       0.085400
      9 S2'          2.2420    -1.5440    -3.6260 s          1 MPN      -0.059400
     10 O3'          3.2240    -3.9560    -0.9270 os         1 MPN      -0.383600
     11 C7           3.3050    -5.2500    -1.5260 c3         1 MPN       0.435300
     12 C6           2.2910    -5.3540    -2.6760 c3         1 MPN       0.168500
     13 C1'          2.5940    -4.2100    -3.6250 cs         1 MPN       0.211400
     14 S1'          2.6440    -4.4210    -5.2080 s          1 MPN      -0.307400
     15 N5           0.9590    -5.1300    -2.0960 nu         1 MPN      -0.763000
     16 N8           2.9300    -6.2580    -0.5240 nu         1 MPN      -0.808000
     17 C10          1.6110    -6.3540    -0.1300 cc         1 MPN       0.271000
     18 C9           0.6250    -5.8000    -0.8980 cd         1 MPN       0.013800
     19 C4          -0.7150    -5.9090    -0.4780 c          1 MPN       0.713700
     20 O4          -1.6140    -5.4210    -1.1490 o          1 MPN      -0.551100
     21 N3          -0.9950    -6.5530     0.6670 nc         1 MPN      -0.702100
     22 C2          -0.0390    -7.0830     1.4000 cd         1 MPN       0.549100
     23 N1           1.2680    -6.9990     1.0290 na         1 MPN      -0.681000
     24 N2          -0.3670    -7.7330     2.5620 nz         1 MPN      -0.717600
     25 H4'1         3.9280    -0.7520    -1.6310 h1         1 MPN       0.049200
     26 H4'2         4.0740    -1.5890    -0.0800 h1         1 MPN       0.049200
     27 H3'          4.7310    -3.0480    -2.0130 h1         1 MPN       0.030700
     28 H7           4.3090    -5.4350    -1.8900 h2         1 MPN       0.051700
     29 H6           2.3530    -6.3130    -3.1760 h1         1 MPN       0.072700
     30 H5           0.3030    -4.5180    -2.5400 hn         1 MPN       0.488800
     31 H8           3.6210    -6.8670    -0.1330 hn         1 MPN       0.429800
     32 H1           1.9780    -7.4100     1.6030 hn         1 MPN       0.426800
     33 H21         -0.0560    -8.6830     2.5120 hn         1 MPN       0.424133
     34 H22          0.0770    -7.2780     3.3350 hn         1 MPN       0.424133
     35 H23         -1.3590    -7.7120     2.6880 hn         1 MPN       0.424133
@<TRIPOS>BOND
     1     1     2 1
     2     2     3 1
     3     2     4 1
     4     2     5 1
     5     5     6 1
     6     6     7 1
     7     6    25 1
     8     6    26 1
     9     7     8 1
    10     7    10 1
    11     7    27 1
    12     8     9 2
    13     8    13 1
    14    10    11 1
    15    11    12 1
    16    11    16 1
    17    11    28 1
    18    12    13 1
    19    12    15 1
    20    12    29 1
    21    13    14 2
    22    15    18 1
    23    15    30 1
    24    16    17 1
    25    16    31 1
    26    17    18 2
    27    17    23 1
    28    18    19 1
    29    19    20 2
    30    19    21 1
    31    21    22 2
    32    22    23 1
    33    22    24 1
    34    23    32 1
    35    24    33 1
    36    24    34 1
    37    35    24 1
@<TRIPOS>SUBSTRUCTURE
     1 MPN         1 TEMP              0 ****  ****    0 ROOT
