@<TRIPOS>MOLECULE
MPN
   34    36     1     0     0
SMALL
bcc


@<TRIPOS>ATOM
      1 O3P         0.6660    4.0240    0.9020 o         1 MPN     -0.854500
      2 P           1.2040    2.7300    0.3920 p5        1 MPN      1.458800
      3 O1P         0.7150    1.4010    0.7980 o         1 MPN     -0.854500
      4 O2P         1.2500    2.8140   -1.2300 oh        1 MPN     -0.803400
      5 O4'         2.8040    2.9370    0.6660 os        1 MPN     -0.608200
      6 C4'         3.7230    1.9710    0.2390 c3        1 MPN      0.257600
      7 C3'         4.7740    2.5880   -0.6280 c2        1 MPN     -0.089100
      8 C2'         6.1300    2.5990   -0.4000 ce        1 MPN      0.085300
      9 S2'         6.9240    1.8120    0.7950 s         1 MPN     -0.728300
     10 O3'         4.2810    3.1270   -1.8150 os        1 MPN     -0.331900
     11 C7          4.7190    4.4520   -2.1230 c3        1 MPN      0.371300
     12 C6          6.1810    4.7580   -1.6410 c3        1 MPN      0.070500
     13 C1'         6.8900    3.4390   -1.3310 c         1 MPN      0.269400
     14 S1'         8.2410    3.1500   -2.0350 s         1 MPN     -0.405400
     15 N5          6.2930    5.7770   -0.5960 nh        1 MPN     -0.667000
     16 N8          3.7030    5.4070   -1.6810 nh        1 MPN     -0.705000
     17 C10         3.8830    5.7970   -0.3100 cc        1 MPN      0.222000
     18 C9          5.1550    5.9760    0.2120 cd        1 MPN     -0.103200
     19 C4          5.2850    6.4310    1.6300 c         1 MPN      0.726700
     20 O4          6.3900    6.7900    2.0930 o         1 MPN     -0.623100
     21 N3          4.1360    6.4560    2.4240 nc        1 MPN     -0.781100
     22 C2          2.9480    6.1400    1.8740 cd        1 MPN      0.848100
     23 N1          2.7360    5.9620    0.4840 na        1 MPN     -0.672000
     24 N2          1.7860    6.1290    2.6830 nh        1 MPN     -0.892800
     25 H4'1        3.1750    1.1640   -0.3230 h1        1 MPN      0.048700
     26 H4'2        4.2460    1.5380    1.1420 h1        1 MPN      0.048700
     27 H3'         2.0500    3.1930   -1.5840 ho        1 MPN      0.455000
     28 H7          4.7130    4.4610   -3.2560 h2        1 MPN      0.058700
     29 H6          6.7150    5.2250   -2.5270 h1        1 MPN      0.061700
     30 H5          7.1020    5.6210   -0.0160 hn        1 MPN      0.410800
     31 H8          3.7360    6.2310   -2.2550 hn        1 MPN      0.367800
     32 H1          1.9200    5.4070    0.2180 hn        1 MPN      0.504800
     33 H21         1.9880    5.9580    3.6440 hn        1 MPN      0.427800
     34 H22         1.0490    5.5400    2.3240 hn        1 MPN      0.427800
@<TRIPOS>BOND
     1    1    2 1   
     2    2    3 1   
     3    2    4 1   
     4    2    5 1   
     5    4   27 1   
     6    5    6 1   
     7    6    7 1   
     8    6   25 1   
     9    6   26 1   
    10    7    8 2   
    11    7   10 1   
    12    8    9 1   
    13    8   13 1   
    14   10   11 1   
    15   11   12 1   
    16   11   16 1   
    17   11   28 1   
    18   12   13 1   
    19   12   15 1   
    20   12   29 1   
    21   13   14 2   
    22   15   18 1   
    23   15   30 1   
    24   16   17 1   
    25   16   31 1   
    26   17   18 2   
    27   17   23 1   
    28   18   19 1   
    29   19   20 2   
    30   19   21 1   
    31   21   22 2   
    32   22   23 1   
    33   22   24 1   
    34   23   32 1   
    35   24   33 1   
    36   24   34 1   
@<TRIPOS>SUBSTRUCTURE
     1 MPN         1 TEMP              0 ****  ****    0 ROOT
