@<TRIPOS>MOLECULE
MPO
   27    27     1     0     0
SMALL
bcc


@<TRIPOS>ATOM
      1 S1           0.0000     0.0000     0.0000 s6         1 MPO       0.949800
      2 O1           1.4210     0.0000     0.0000 o          1 MPO      -0.658533
      3 O2          -0.7540     0.0000     1.2040 o          1 MPO      -0.658533
      4 O4          -2.0020    -7.4590    -0.6400 os         1 MPO      -0.408600
      5 N1          -0.7150    -4.9670    -1.2900 n3         1 MPO      -0.521600
      6 C1          -0.6680    -1.1760    -1.2080 c3         1 MPO      -0.054600
      7 O3          -0.3360     1.3530    -0.6080 o          1 MPO      -0.658533
      8 C2          -0.4040    -2.6040    -0.7290 c3         1 MPO      -0.005400
      9 C3          -0.9680    -3.5950    -1.7490 c3         1 MPO       0.132800
     10 C4          -1.2770    -5.8640    -2.3070 c3         1 MPO       0.096300
     11 C5          -1.2050    -7.3090    -1.8130 c3         1 MPO       0.199900
     12 C6          -1.4320    -6.6220     0.3660 c3         1 MPO       0.199900
     13 C7          -1.5110    -5.1590    -0.0730 c3         1 MPO       0.096300
     14 H11         -1.7350    -1.0200    -1.3100 h1         1 MPO       0.048200
     15 H12         -0.1870    -1.0210    -2.1660 h1         1 MPO       0.048200
     16 H21          0.6630    -2.7590    -0.6260 hc         1 MPO       0.025200
     17 H22         -0.8860    -2.7590     0.2290 hc         1 MPO       0.025200
     18 H31         -0.4860    -3.4400    -2.7070 h1         1 MPO       0.008700
     19 H32         -2.0350    -3.4400    -1.8530 h1         1 MPO       0.008700
     20 H41         -2.3120    -5.5980    -2.4890 h1         1 MPO       0.023700
     21 H42         -0.7080    -5.7690    -3.2240 h1         1 MPO       0.023700
     22 H51         -0.1760    -7.5580    -1.5820 h1         1 MPO       0.007950
     23 H52         -1.5760    -7.9710    -2.5860 h1         1 MPO       0.007950
     24 H61         -0.3950    -6.8960     0.5150 h1         1 MPO       0.007950
     25 H62         -1.9810    -6.7490     1.2910 h1         1 MPO       0.007950
     26 H71         -1.1220    -4.5260     0.7160 h1         1 MPO       0.023700
     27 H72         -2.5440    -4.8990    -0.2740 h1         1 MPO       0.023700
@<TRIPOS>BOND
     1     1     2 1   
     2     1     3 1   
     3     1     6 1   
     4     1     7 1   
     5     4    11 1   
     6     4    12 1   
     7     5     9 1   
     8     5    10 1   
     9     5    13 1   
    10     6     8 1   
    11     6    14 1   
    12     6    15 1   
    13     8     9 1   
    14     8    16 1   
    15     8    17 1   
    16     9    18 1   
    17     9    19 1   
    18    10    11 1   
    19    10    20 1   
    20    10    21 1   
    21    11    22 1   
    22    11    23 1   
    23    12    13 1   
    24    12    24 1   
    25    12    25 1   
    26    13    26 1   
    27    13    27 1   
@<TRIPOS>SUBSTRUCTURE
     1 MPO         1 TEMP              0 ****  ****    0 ROOT
