@<TRIPOS>MOLECULE
MPP
   28    28     1     0     0
SMALL
bcc


@<TRIPOS>ATOM
      1 CA          0.1000    0.0910   -0.0420 c3        1 MPP     -0.192400
      2 C           1.5980    0.4510    0.0010 c         1 MPP      0.907600
      3 OT1         2.0190    1.1520    0.9670 o         1 MPP     -0.847800
      4 OT2         2.3260    0.0420   -0.9480 o         1 MPP     -0.847800
      5 CB         -0.3980   -0.3180    1.3270 c3        1 MPP     -0.040100
      6 CG         -1.8810   -0.2740    1.4380 ca        1 MPP     -0.026300
      7 CD1        -2.5390    0.9650    1.4220 ca        1 MPP     -0.183000
      8 CD2        -2.6330   -1.4450    1.5670 ca        1 MPP     -0.151000
      9 CE1        -3.9290    1.0280    1.5260 ca        1 MPP      0.102100
     10 OEA        -4.6650    2.2010    1.5110 os        1 MPP     -0.319900
     11 CEA        -3.9060    3.3990    1.3980 c3        1 MPP      0.112700
     12 CE2        -4.0220   -1.3950    1.6820 ca        1 MPP     -0.164000
     13 CZ         -4.6790   -0.1640    1.6640 ca        1 MPP      0.055100
     14 OZA        -6.0500   -0.0210    1.8320 os        1 MPP     -0.318900
     15 CZA        -6.8240   -1.1070    1.3400 c3        1 MPP      0.117700
     16 HA1        -0.0650   -0.7310   -0.7820 hc        1 MPP      0.025200
     17 HA2        -0.4550    0.9950   -0.3990 hc        1 MPP      0.025200
     18 HB1        -0.0260   -1.3500    1.5630 hc        1 MPP      0.060200
     19 HB2         0.0560    0.3820    2.0850 hc        1 MPP      0.060200
     20 HD1        -1.9330    1.8780    1.3150 ha        1 MPP      0.155000
     21 HD2        -2.1240   -2.4200    1.5760 ha        1 MPP      0.131000
     22 HEA1       -3.3380    3.4200    0.4360 h1        1 MPP      0.040367
     23 HEA2       -3.2080    3.5100    2.2640 h1        1 MPP      0.040367
     24 HEA3       -4.6850    4.2030    1.4140 h1        1 MPP      0.040367
     25 HE2        -4.5980   -2.3240    1.7840 ha        1 MPP      0.123000
     26 HZA1       -6.7690   -1.9700    2.0490 h1        1 MPP      0.032033
     27 HZA2       -7.8660   -0.7010    1.3050 h1        1 MPP      0.032033
     28 HZA3       -6.4880   -1.4230    0.3240 h1        1 MPP      0.032033
@<TRIPOS>BOND
     1    1    2 1   
     2    1    5 1   
     3    1   16 1   
     4    1   17 1   
     5    2    3 1   
     6    2    4 1   
     7    5    6 1   
     8    5   18 1   
     9    5   19 1   
    10    6    7 ar  
    11    6    8 ar  
    12    7    9 ar  
    13    7   20 1   
    14    8   12 ar  
    15    8   21 1   
    16    9   10 1   
    17    9   13 ar  
    18   10   11 1   
    19   11   22 1   
    20   11   23 1   
    21   11   24 1   
    22   12   13 ar  
    23   12   25 1   
    24   13   14 1   
    25   14   15 1   
    26   15   26 1   
    27   15   27 1   
    28   15   28 1   
@<TRIPOS>SUBSTRUCTURE
     1 MPP         1 TEMP              0 ****  ****    0 ROOT
