@<TRIPOS>MOLECULE
molecule
   28    28     1     0     0
SMALL
bcc


@<TRIPOS>ATOM
      1 CA           0.0000     0.0000     0.0000 c3         1 MPP      -0.178400
      2 C            1.5070     0.0000     0.0000 c          1 MPP       0.890600
      3 OT1          2.1100     0.0000     1.0460 o          1 MPP      -0.853800
      4 OT2          2.1780     0.0010    -1.1620 o          1 MPP      -0.853800
      5 CB          -0.5110    -0.0010     1.4410 c3         1 MPP      -0.026100
      6 CG          -2.0180    -0.0020     1.4410 ca         1 MPP      -0.047300
      7 CD1         -2.7070     1.1950     1.4410 ca         1 MPP      -0.194000
      8 CD2         -2.7070    -1.2000     1.4400 ca         1 MPP      -0.132000
      9 CE1         -4.0930     1.1970     1.4350 ca         1 MPP       0.088100
     10 OEA         -4.7730     2.3740     1.4350 os         1 MPP      -0.297900
     11 CEA         -3.7940     3.4170     1.4430 c3         1 MPP       0.104700
     12 CE2         -4.0890    -1.2060     1.4400 ca         1 MPP      -0.193000
     13 CZ          -4.7860    -0.0090     1.4400 ca         1 MPP       0.061100
     14 OZA         -6.1470    -0.0130     1.4400 os         1 MPP      -0.295900
     15 CZA         -6.5560    -1.3820     1.4390 c3         1 MPP       0.108700
     16 HA1         -0.3610     0.8850    -0.5100 hc         1 MPP       0.032200
     17 HA2         -0.3610    -0.8840    -0.5120 hc         1 MPP       0.032200
     18 HB1         -0.1510     0.8830     1.9520 hc         1 MPP       0.055200
     19 HB2         -0.1500    -0.8850     1.9520 hc         1 MPP       0.055200
     20 HD1         -2.1650     2.1320     1.4820 ha         1 MPP       0.150000
     21 HD2         -2.1620    -2.1370     1.4400 ha         1 MPP       0.136000
     22 HEA1        -3.1740     3.3230     2.3260 h1         1 MPP       0.040700
     23 HEA2        -4.2920     4.3790     1.4510 h1         1 MPP       0.040700
     24 HEA3        -3.1760     3.3380     0.5570 h1         1 MPP       0.040700
     25 HE2         -4.6270    -2.1460     1.4420 ha         1 MPP       0.131000
     26 HZA1        -6.1710    -1.8740     2.3240 h1         1 MPP       0.035367
     27 HZA2        -7.6380    -1.4350     1.4380 h1         1 MPP       0.035367
     28 HZA3        -6.1690    -1.8740     0.5550 h1         1 MPP       0.035367
@<TRIPOS>BOND
     1     1     2 1
     2     1     5 1
     3     1    16 1
     4     1    17 1
     5     2     3 1
     6     2     4 1
     7     5     6 1
     8     5    18 1
     9     5    19 1
    10     6     7 ar
    11     6     8 ar
    12     7     9 ar
    13     7    20 1
    14     8    12 ar
    15     8    21 1
    16     9    10 1
    17     9    13 ar
    18    10    11 1
    19    11    22 1
    20    11    23 1
    21    11    24 1
    22    12    13 ar
    23    12    25 1
    24    13    14 1
    25    14    15 1
    26    15    26 1
    27    15    27 1
    28    15    28 1
@<TRIPOS>SUBSTRUCTURE
     1 MPP         1 TEMP              0 ****  ****    0 ROOT
