@<TRIPOS>MOLECULE
molecule
   11    10     1     0     0
SMALL
bcc


@<TRIPOS>ATOM
      1 C1           0.0000     0.0000     0.0000 c          1 MPR       0.568900
      2 O            1.2070     0.0000     0.0000 o          1 MPR      -0.510100
      3 C2          -0.7550     0.0000     1.3040 c3         1 MPR      -0.188400
      4 C3          -1.6340     1.2470     1.3830 c3         1 MPR       0.047700
      5 S3          -2.5430     1.2480     2.9530 sh         1 MPR      -0.419900
      6 H1          -0.5410    -0.0200    -0.9380 h4         1 MPR      -0.003800
      7 H21         -0.0520     0.0000     2.1280 hc         1 MPR       0.082700
      8 H22         -1.3770    -0.8850     1.3610 hc         1 MPR       0.082700
      9 H31         -1.0110     2.1320     1.3260 h1         1 MPR       0.059200
     10 H32         -2.3370     1.2470     0.5590 h1         1 MPR       0.059200
     11 HS3         -3.3060     2.3320     3.0220 hs         1 MPR       0.221800
@<TRIPOS>BOND
     1     1     2 2
     2     1     3 1
     3     1     6 1
     4     3     4 1
     5     3     7 1
     6     3     8 1
     7     4     5 1
     8     4     9 1
     9     4    10 1
    10     5    11 1
@<TRIPOS>SUBSTRUCTURE
     1 MPR         1 TEMP              0 ****  ****    0 ROOT
