@<TRIPOS>MOLECULE
MPS
    8     7     1     0     0
SMALL
bcc


@<TRIPOS>ATOM
      1 CM          0.0880   -0.0100   -0.0020 c3        1 MPS     -0.357300
      2 P           1.7770    0.1520    0.0290 p5        1 MPS      1.270600
      3 O1          2.2740   -0.0770    1.4090 o         1 MPS     -0.887500
      4 O2          2.1740    1.3610   -0.7370 o         1 MPS     -0.887500
      5 HM1        -0.3080    0.0290   -1.0390 hc        1 MPS      0.044033
      6 HM2        -0.2390   -0.9660    0.4600 hc        1 MPS      0.044033
      7 HM3        -0.3850    0.8190    0.5700 hc        1 MPS      0.044033
      8 H           2.0640   -0.9280   -0.7090 hp        1 MPS     -0.269400
@<TRIPOS>BOND
     1    1    2 1   
     2    1    5 1   
     3    1    6 1   
     4    1    7 1   
     5    2    3 1   
     6    2    4 1   
     7    2    8 1   
@<TRIPOS>SUBSTRUCTURE
     1 MPS         1 TEMP              0 ****  ****    0 ROOT
