@<TRIPOS>MOLECULE
molecule
    8     7     1     0     0
SMALL
bcc


@<TRIPOS>ATOM
      1 CM           0.0000     0.0000     0.0000 c3         1 MPS      -0.275300
      2 P            1.8000     0.0000     0.0000 p5         1 MPS       0.948600
      3 O1           2.3120     0.0000     1.4180 o          1 MPS      -0.804500
      4 O2           2.0790     1.4450    -0.6940 o          1 MPS      -0.804500
      5 HM1         -0.3610     0.8550     0.5590 hc         1 MPS       0.037367
      6 HM2         -0.3610    -0.9110     0.4610 hc         1 MPS       0.037367
      7 HM3         -0.3610     0.0560    -1.0200 hc         1 MPS       0.037367
      8 H            2.3380    -1.0650    -0.7430 hp         1 MPS      -0.176400
@<TRIPOS>BOND
     1     1     2 1
     2     1     5 1
     3     1     6 1
     4     1     7 1
     5     2     3 1
     6     2     4 1
     7     2     8 1
@<TRIPOS>SUBSTRUCTURE
     1 MPS         1 TEMP              0 ****  ****    0 ROOT
