@<TRIPOS>MOLECULE
molecule
   11    10     1     0     0
SMALL
bcc


@<TRIPOS>ATOM
      1 CA           0.0000     0.0000     0.0000 c3         1 MPT      -0.172400
      2 C            1.5080     0.0000     0.0000 c          1 MPT       0.896600
      3 O            2.1110     0.0000     1.0460 o          1 MPT      -0.848800
      4 CB          -0.5090     0.0000     1.4420 c3         1 MPT       0.093700
      5 SG          -2.3240     0.0000     1.4420 sh         1 MPT      -0.519900
      6 OXT          2.1790    -0.0000    -1.1620 o          1 MPT      -0.848800
      7 HA1         -0.3610     0.8850    -0.5110 hc         1 MPT       0.044700
      8 HA2         -0.3610    -0.8850    -0.5110 hc         1 MPT       0.044700
      9 HB1         -0.1480    -0.8850     1.9530 h1         1 MPT       0.059700
     10 HB2         -0.1480     0.8850     1.9530 h1         1 MPT       0.059700
     11 HG          -2.7660     0.0000     2.6940 hs         1 MPT       0.191800
@<TRIPOS>BOND
     1     1     2 1
     2     1     4 1
     3     1     7 1
     4     1     8 1
     5     2     3 1
     6     2     6 1
     7     4     5 1
     8     4     9 1
     9     4    10 1
    10     5    11 1
@<TRIPOS>SUBSTRUCTURE
     1 MPT         1 TEMP              0 ****  ****    0 ROOT
