@<TRIPOS>MOLECULE
MPT
   11    10     1     0     0
SMALL
bcc


@<TRIPOS>ATOM
      1 CA         -0.0220   -0.0770    0.0210 c3        1 MPT     -0.201400
      2 C           1.5250   -0.0860    0.0140 c         1 MPT      0.914600
      3 O           2.1300   -0.4890    1.0480 o         1 MPT     -0.844300
      4 CB         -0.5450    0.1540    1.4040 c3        1 MPT      0.074700
      5 SG         -2.3200   -0.0980    1.4000 sh        1 MPT     -0.482900
      6 OXT         2.0980    0.3000   -1.0420 o         1 MPT     -0.844300
      7 HA1        -0.3640   -1.0690   -0.3680 hc        1 MPT      0.039200
      8 HA2        -0.3830    0.7140   -0.6820 hc        1 MPT      0.039200
      9 HB1        -0.3280    1.1940    1.7410 h1        1 MPT      0.063200
     10 HB2        -0.0590   -0.5560    2.1160 h1        1 MPT      0.063200
     11 HG         -2.5520    0.0130    2.6930 hs        1 MPT      0.178800
@<TRIPOS>BOND
     1    1    2 1   
     2    1    4 1   
     3    1    7 1   
     4    1    8 1   
     5    2    3 1   
     6    2    6 1   
     7    4    5 1   
     8    4    9 1   
     9    4   10 1   
    10    5   11 1   
@<TRIPOS>SUBSTRUCTURE
     1 MPT         1 TEMP              0 ****  ****    0 ROOT
