@<TRIPOS>MOLECULE
MPU
   29    30     1     0     0
SMALL
bcc


@<TRIPOS>ATOM
      1 N2         -0.2490    0.4880    0.1500 n         1 MPU     -0.513400
      2 C1          1.1480    0.6420    0.0410 c         1 MPU      0.622000
      3 O11         1.5950    1.0710   -1.0300 o         1 MPU     -0.573500
      4 C10         1.9320    0.2770    1.2470 ca        1 MPU      0.174500
      5 N9          3.2860    0.4010    1.2070 nb        1 MPU     -0.537000
      6 C8          3.9540    0.0650    2.3190 ca        1 MPU      0.229300
      7 C7          3.2570   -0.4040    3.4860 ca        1 MPU      0.337900
      8 N6          1.9380   -0.5410    3.5500 nb        1 MPU     -0.623000
      9 C5          1.2240   -0.2010    2.4110 ca        1 MPU      0.567000
     10 N4         -0.1640   -0.3250    2.4400 nc        1 MPU     -0.739700
     11 C3         -0.8460   -0.0180    1.3210 cd        1 MPU      0.693800
     12 N13        -2.2330   -0.2640    1.2870 nh        1 MPU     -0.894800
     13 C16         5.4630    0.1570    2.3860 c3        1 MPU      0.117800
     14 O21         6.0020    1.2100    1.6240 oh        1 MPU     -0.583800
     15 C26         6.0890   -1.1960    1.9850 c3        1 MPU      0.111100
     16 O22         6.0100   -1.2810    0.5730 oh        1 MPU     -0.596800
     17 C28         7.5490   -1.2410    2.4510 c3        1 MPU      0.090400
     18 O24         8.0890   -2.4500    1.9400 oh        1 MPU     -0.612800
     19 HN2        -0.7960    0.6700   -0.6650 hn        1 MPU      0.338500
     20 H7          3.8170   -0.6750    4.4000 h4        1 MPU      0.035100
     21 H131       -2.6370   -0.5270    2.1610 hn        1 MPU      0.427800
     22 H132       -2.7790    0.3700    0.7490 hn        1 MPU      0.427800
     23 H16         5.7580    0.4000    3.4490 h1        1 MPU      0.079700
     24 H21         5.8260    1.0210    0.6900 ho        1 MPU      0.439000
     25 H26         5.5150   -2.0460    2.4470 h1        1 MPU      0.053700
     26 H22         6.5390   -2.0470    0.3100 ho        1 MPU      0.428000
     27 H281        7.6030   -1.2450    3.5710 h1        1 MPU      0.043700
     28 H282        8.1020   -0.3530    2.0460 h1        1 MPU      0.043700
     29 H24         9.0460   -2.3950    2.0440 ho        1 MPU      0.412000
@<TRIPOS>BOND
     1    1    2 1
     2    1   11 1
     3    1   19 1
     4    2    3 2
     5    2    4 1
     6    4    5 ar
     7    4    9 ar
     8    5    6 ar
     9    6    7 ar
    10    6   13 1
    11    7    8 ar
    12    7   20 1
    13    8    9 ar
    14    9   10 1
    15   10   11 2
    16   11   12 1
    17   12   21 1
    18   12   22 1
    19   13   14 1
    20   13   15 1
    21   13   23 1
    22   14   24 1
    23   15   16 1
    24   15   17 1
    25   15   25 1
    26   16   26 1
    27   17   18 1
    28   17   27 1
    29   17   28 1
    30   18   29 1
@<TRIPOS>SUBSTRUCTURE
     1 MPU         1 TEMP              0 ****  ****    0 ROOT
