@<TRIPOS>MOLECULE
molecule
   21    22     1     0     0
SMALL
bcc


@<TRIPOS>ATOM
      1 C1           0.0000     0.0000     0.0000 cc         1 MPV      -0.346300
      2 C2           1.3590     0.0000     0.0000 cd         1 MPV       0.167300
      3 N3           1.7730     0.0000     1.2940 na         1 MPV       0.052400
      4 N4           0.6380    -0.0010     2.1140 nd         1 MPV      -0.500800
      5 C5          -0.4300    -0.0010     1.3420 cc         1 MPV       0.422800
      6 C6          -1.8360    -0.0000     1.8030 cc         1 MPV      -0.056600
      7 S7          -3.2480    -0.0010     0.7560 ss         1 MPV      -0.141800
      8 C8          -4.3210    -0.0020     2.1490 cc         1 MPV      -0.077100
      9 C9          -3.5990    -0.0020     3.2740 cd         1 MPV      -0.157000
     10 C10         -2.2320    -0.0060     3.0910 cd         1 MPV      -0.138000
     11 C11          3.1650    -0.0000     1.7520 c3         1 MPV       0.066600
     12 N12          2.1800    -0.0000    -1.1250 nv         1 MPV      -0.959200
     13 H1          -0.6380    -0.0000    -0.8750 ha         1 MPV       0.161000
     14 H8          -5.4030    -0.0000     2.1030 h4         1 MPV       0.169000
     15 H9          -4.0540    -0.0040     4.2580 ha         1 MPV       0.147000
     16 H10         -1.5310    -0.0070     3.9170 ha         1 MPV       0.161000
     17 H11          3.6670    -0.8850     1.3800 h1         1 MPV       0.052367
     18 H11A         3.6680     0.8840     1.3800 h1         1 MPV       0.052367
     19 H11B         3.1890    -0.0000     2.8350 h1         1 MPV       0.052367
     20 HN12         2.4580    -0.8670    -1.5410 hn         1 MPV       0.436800
     21 HN1A         2.4590     0.8660    -1.5400 hn         1 MPV       0.436800
@<TRIPOS>BOND
     1     1     2 2
     2     1     5 1
     3     2     3 1
     4     2    12 1
     5     3     4 1
     6     3    11 1
     7     4     5 2
     8     5     6 1
     9     6     7 1
    10     6    10 2
    11     7     8 1
    12     8     9 2
    13     9    10 1
    14     1    13 1
    15     8    14 1
    16     9    15 1
    17    10    16 1
    18    11    17 1
    19    11    18 1
    20    11    19 1
    21    12    20 1
    22    12    21 1
@<TRIPOS>SUBSTRUCTURE
     1 MPV         1 TEMP              0 ****  ****    0 ROOT
