@<TRIPOS>MOLECULE
MPV
   21    22     1     0     0
SMALL
bcc


@<TRIPOS>ATOM
      1 C1           0.0000     0.0000     0.0000 cc         1 MPV      -0.322300
      2 C2           1.3590     0.0000     0.0000 cd         1 MPV      -0.124700
      3 N3           1.7730     0.0000     1.2940 na         1 MPV       0.475400
      4 N4           0.6380    -0.0010     2.1140 nd         1 MPV      -0.637800
      5 C5          -0.4300    -0.0010     1.3420 cc         1 MPV       0.452800
      6 C6          -1.8360    -0.0000     1.8030 cc         1 MPV      -0.005600
      7 S7          -3.2480    -0.0010     0.7560 ss         1 MPV      -0.270800
      8 C8          -4.3210    -0.0020     2.1490 cc         1 MPV      -0.001100
      9 C9          -3.5990    -0.0020     3.2740 cd         1 MPV      -0.125000
     10 C10         -2.2320    -0.0060     3.0910 cd         1 MPV      -0.113000
     11 C11          3.1650    -0.0000     1.7520 c3         1 MPV       0.025600
     12 N12          2.1800    -0.0000    -1.1250 nv         1 MPV      -0.507200
     13 H1          -0.6380    -0.0000    -0.8750 ha         1 MPV       0.145000
     14 H8          -5.4030    -0.0000     2.1030 h4         1 MPV       0.147000
     15 H9          -4.0540    -0.0040     4.2580 ha         1 MPV       0.118000
     16 H10         -1.5310    -0.0070     3.9170 ha         1 MPV       0.135000
     17 H11          3.6670    -0.8850     1.3800 h1         1 MPV       0.020033
     18 H11A         3.6680     0.8840     1.3800 h1         1 MPV       0.020033
     19 H11B         3.1890    -0.0000     2.8350 h1         1 MPV       0.020033
     20 HN12         2.4580    -0.8670    -1.5410 hn         1 MPV       0.273800
     21 HN1A         2.4590     0.8660    -1.5400 hn         1 MPV       0.273800
@<TRIPOS>BOND
     1     1     2 2   
     2     1     5 1   
     3     1    13 1   
     4     2     3 1   
     5     2    12 1   
     6     3     4 1   
     7     3    11 1   
     8     4     5 2   
     9     5     6 1   
    10     6     7 1   
    11     6    10 2   
    12     7     8 1   
    13     8     9 2   
    14     8    14 1   
    15     9    10 1   
    16     9    15 1   
    17    10    16 1   
    18    11    17 1   
    19    11    18 1   
    20    11    19 1   
    21    12    20 1   
    22    12    21 1   
@<TRIPOS>SUBSTRUCTURE
     1 MPV         1 TEMP              0 ****  ****    0 ROOT
