@<TRIPOS>MOLECULE
MPW
   33    35     1     0     0
SMALL
bcc


@<TRIPOS>ATOM
      1 O           0.3280    1.1290   -0.2060 os        1 MPW     -0.319900
      2 C1          6.7550   -0.5360    5.7480 ca        1 MPW     -0.033900
      3 N1          8.5650   -2.2340    6.1010 nb        1 MPW     -0.659000
      4 C2          7.0430    0.0730    6.9770 ca        1 MPW     -0.036000
      5 N2          7.0570   -2.0920    4.1070 na        1 MPW     -0.384000
      6 C3          8.0700   -0.4740    7.7340 ca        1 MPW     -0.270300
      7 N3          3.7020   -1.3240    0.1410 nb        1 MPW     -0.702000
      8 C4          8.7860   -1.6030    7.2620 ca        1 MPW      0.409200
      9 N4          5.8090   -0.2600    4.7470 nc        1 MPW     -0.567100
     10 C5          7.5570   -1.6980    5.3560 ca        1 MPW      0.397800
     11 C6          6.0080   -1.1920    3.7900 cd        1 MPW      0.425800
     12 C7          4.1360   -0.3290    2.3810 c3        1 MPW     -0.123700
     13 C8          3.3320   -0.4560    1.1180 ca        1 MPW      0.435600
     14 C9          2.9410   -1.3780   -0.9640 ca        1 MPW      0.433200
     15 C10         1.7910   -0.5980   -1.1780 ca        1 MPW     -0.328300
     16 C11         1.4210    0.2930   -0.1620 ca        1 MPW      0.163100
     17 C12        -0.4670    1.0590   -1.3860 c3        1 MPW      0.111700
     18 C13         2.1980    0.3730    1.0090 ca        1 MPW     -0.276300
     19 C14         5.2600   -1.3370    2.5030 c3        1 MPW     -0.086700
     20 HN2         7.3750   -2.8450    3.5590 hn        1 MPW      0.316700
     21 H3          8.3390   -0.0390    8.7050 ha        1 MPW      0.144000
     22 H4          9.6030   -2.0310    7.8730 h4        1 MPW      0.023100
     23 H7          3.4340   -0.4380    3.2520 hc        1 MPW      0.075700
     24 H7A         4.5570    0.7130    2.4180 hc        1 MPW      0.075700
     25 H9          3.2750   -2.0970   -1.7350 h4        1 MPW      0.021100
     26 H10         1.2190   -0.6960   -2.1070 ha        1 MPW      0.148000
     27 H12        -1.2770    1.8090   -1.1960 h1        1 MPW      0.048367
     28 H12A        0.1350    1.3450   -2.2830 h1        1 MPW      0.048367
     29 H12B       -0.8960    0.0350   -1.5100 h1        1 MPW      0.048367
     30 H13         1.9200    1.0670    1.8130 ha        1 MPW      0.162000
     31 H14         5.9850   -1.2070    1.6530 hc        1 MPW      0.074700
     32 H14A        4.8450   -2.3800    2.4420 hc        1 MPW      0.074700
     33 H2          6.4720    0.9480    7.3200 ha        1 MPW      0.151000
@<TRIPOS>BOND
     1    1   16 1   
     2    1   17 1   
     3    2    4 ar  
     4    2    9 1   
     5    2   10 ar  
     6    3    8 ar  
     7    3   10 ar  
     8    4    6 ar  
     9    4   33 1   
    10    5   10 1   
    11    5   11 1   
    12    5   20 1   
    13    6    8 ar  
    14    6   21 1   
    15    7   13 ar  
    16    7   14 ar  
    17    8   22 1   
    18    9   11 2   
    19   11   19 1   
    20   12   13 1   
    21   12   19 1   
    22   12   23 1   
    23   12   24 1   
    24   13   18 ar  
    25   14   15 ar  
    26   14   25 1   
    27   15   16 ar  
    28   15   26 1   
    29   16   18 ar  
    30   17   27 1   
    31   17   28 1   
    32   17   29 1   
    33   18   30 1   
    34   19   31 1   
    35   19   32 1   
@<TRIPOS>SUBSTRUCTURE
     1 MPW         1 TEMP              0 ****  ****    0 ROOT
