@<TRIPOS>MOLECULE
molecule
   33    35     1     0     0
SMALL
bcc


@<TRIPOS>ATOM
      1 O            0.0000     0.0000     0.0000 os         1 MPW      -0.320900
      2 C1           7.2620    -0.5150     5.3620 ca         1 MPW      -0.020900
      3 N1           7.2860    -2.4300     6.7570 nb         1 MPW      -0.702000
      4 C2           8.0960     0.1550     6.2620 ca         1 MPW      -0.038000
      5 N2           6.0710    -2.2280     4.5990 na         1 MPW      -0.363000
      6 C3           8.4990    -0.5150     7.4020 ca         1 MPW      -0.276300
      7 N3           4.0920     0.0000     0.0000 nb         1 MPW      -0.723000
      8 C4           8.0700    -1.8160     7.6180 ca         1 MPW       0.442200
      9 N4           6.6910    -0.1780     4.1790 nc         1 MPW      -0.599100
     10 C5           6.8760    -1.8380     5.6470 ca         1 MPW       0.413800
     11 C6           5.9910    -1.1800     3.7340 cd         1 MPW       0.429800
     12 C7           4.2350     0.0010     2.4400 c3         1 MPW      -0.117700
     13 C8           3.4510     0.0000     1.1540 ca         1 MPW       0.452600
     14 C9           3.4510    -0.0010    -1.1540 ca         1 MPW       0.460200
     15 C10          2.0730    -0.0020    -1.1960 ca         1 MPW      -0.351300
     16 C11          1.3580    -0.0010    -0.0000 ca         1 MPW       0.175100
     17 C12         -0.6480    -0.0000    -1.2730 c3         1 MPW       0.127700
     18 C13          2.0720     0.0010     1.1960 ca         1 MPW      -0.279300
     19 C14          5.2070    -1.1800     2.4460 c3         1 MPW      -0.074700
     20 HN2          5.6260    -3.1180     4.4930 hn         1 MPW       0.311700
     21 H3           9.1450    -0.0270     8.1230 ha         1 MPW       0.141000
     22 H4           8.3880    -2.3380     8.5120 h4         1 MPW       0.025100
     23 H7           4.7910     0.9270     2.5230 hc         1 MPW       0.071700
     24 H7A          3.5540    -0.0870     3.2780 hc         1 MPW       0.071700
     25 H9           4.0150    -0.0010    -2.0790 h4         1 MPW       0.024100
     26 H10          1.5530    -0.0020    -2.1460 ha         1 MPW       0.142000
     27 H12         -0.3560     0.8840    -1.8270 h1         1 MPW       0.044700
     28 H12A        -0.3570    -0.8850    -1.8260 h1         1 MPW       0.044700
     29 H12B        -1.7220     0.0000    -1.1320 h1         1 MPW       0.044700
     30 H13          1.5520     0.0010     2.1460 ha         1 MPW       0.152000
     31 H14          4.6510    -2.1060     2.3630 hc         1 MPW       0.071700
     32 H14A         5.8880    -1.0920     1.6090 hc         1 MPW       0.071700
     33 H2           8.4170     1.1720     6.0720 ha         1 MPW       0.149000
@<TRIPOS>BOND
     1     1    16 1
     2     1    17 1
     3     2     4 ar
     4     2     9 1
     5     2    10 ar
     6     3     8 ar
     7     3    10 ar
     8     4     6 ar
     9     5    10 1
    10     5    11 1
    11     6     8 ar
    12     7    13 ar
    13     7    14 ar
    14     9    11 2
    15    11    19 1
    16    12    13 1
    17    12    19 1
    18    13    18 ar
    19    14    15 ar
    20    15    16 ar
    21    16    18 ar
    22     4    33 1
    23     5    20 1
    24     6    21 1
    25     8    22 1
    26    12    23 1
    27    12    24 1
    28    14    25 1
    29    15    26 1
    30    17    27 1
    31    17    28 1
    32    17    29 1
    33    18    30 1
    34    19    31 1
    35    19    32 1
@<TRIPOS>SUBSTRUCTURE
     1 MPW         1 TEMP              0 ****  ****    0 ROOT
