@<TRIPOS>MOLECULE
MPX
   41    42     1     0     0
SMALL
bcc


@<TRIPOS>ATOM
      1 C1           0.0000     0.0000     0.0000 ca         1 MPX      -0.291500
      2 C2           1.3830     0.0000     0.0000 ca         1 MPX       0.062000
      3 C3           2.0760     0.0000     1.1950 ca         1 MPX      -0.190500
      4 C4           1.3810    -0.0110     2.3980 ca         1 MPX       0.050600
      5 C5          -0.0090    -0.0120     2.3940 ca         1 MPX      -0.190500
      6 C6          -0.6940    -0.0060     1.1960 ca         1 MPX       0.062000
      7 N10          2.0790    -0.0180     3.6100 ns         1 MPX       0.037900
      8 C16          3.4240    -0.1030     3.6130 cs         1 MPX       0.277400
      9 S25          4.1870    -1.5900     3.9840 s          1 MPX      -0.526400
     10 N17          4.1690     0.9830     3.3230 ns         1 MPX       0.021700
     11 N18          3.5650     2.1940     3.1360 n3         1 MPX      -0.424600
     12 C23          4.0080     2.6880     1.8260 c3         1 MPX       0.123300
     13 C22          3.4680     4.1010     1.6000 c3         1 MPX       0.145300
     14 N21          4.0260     5.0100     2.6080 n3         1 MPX      -0.519600
     15 C24          3.3770     6.3120     2.4080 c3         1 MPX       0.176100
     16 C20          3.5830     4.5160     3.9180 c3         1 MPX       0.145300
     17 C19          4.1230     3.1030     4.1440 c3         1 MPX       0.123300
     18 S7          -0.8800     0.0080    -1.5270 sy         1 MPX       0.937200
     19 N15         -1.1260     1.5900    -1.9480 nz         1 MPX      -0.136500
     20 O14          0.0220    -0.5120    -2.4940 o          1 MPX      -0.500300
     21 O13         -2.1660    -0.5190    -1.2350 o          1 MPX      -0.500300
     22 H2           1.9230     0.0070    -0.9390 ha         1 MPX       0.121500
     23 H3           3.1590     0.0000     1.1930 ha         1 MPX       0.137000
     24 H5          -0.5530    -0.0180     3.3310 ha         1 MPX       0.137000
     25 H6          -1.7770    -0.0060     1.1930 ha         1 MPX       0.121500
     26 H10          1.5760    -0.0350     4.4750 hn         1 MPX       0.203500
     27 H17          5.1660     0.9090     3.2830 hn         1 MPX       0.211500
     28 H231         5.0910     2.7080     1.7980 h1         1 MPX       0.033450
     29 H232         3.6340     2.0310     1.0500 h1         1 MPX       0.033450
     30 H221         3.7540     4.4410     0.6120 h1         1 MPX       0.022450
     31 H222         2.3880     4.0900     1.6850 h1         1 MPX       0.022450
     32 H241         3.7190     7.0070     3.1650 h1         1 MPX       0.009367
     33 H242         2.3030     6.1960     2.4830 h1         1 MPX       0.009367
     34 H243         3.6300     6.6950     1.4260 h1         1 MPX       0.009367
     35 H201         3.9580     5.1720     4.6950 h1         1 MPX       0.022450
     36 H202         2.5010     4.4960     3.9480 h1         1 MPX       0.022450
     37 H191         5.2030     3.1130     4.0600 h1         1 MPX       0.033450
     38 H192         3.8370     2.7620     5.1320 h1         1 MPX       0.033450
     39 H151        -0.2430     2.0510    -2.0470 hn         1 MPX       0.311800
     40 H152        -1.6230     1.6310    -2.8160 hn         1 MPX       0.311800
     41 H153        -1.6620     2.0450    -1.2350 hn         1 MPX       0.311800
@<TRIPOS>BOND
     1     1     2 ar  
     2     1     6 ar  
     3     1    18 1   
     4     2     3 ar  
     5     2    22 1   
     6     3     4 ar  
     7     3    23 1   
     8     4     5 ar  
     9     4     7 1   
    10     5     6 ar  
    11     5    24 1   
    12     6    25 1   
    13     7     8 1   
    14     7    26 1   
    15     8     9 2   
    16     8    10 1   
    17    10    11 1   
    18    10    27 1   
    19    11    12 1   
    20    11    17 1   
    21    12    13 1   
    22    12    28 1   
    23    12    29 1   
    24    13    14 1   
    25    13    30 1   
    26    13    31 1   
    27    14    15 1   
    28    14    16 1   
    29    15    32 1   
    30    15    33 1   
    31    15    34 1   
    32    16    17 1   
    33    16    35 1   
    34    16    36 1   
    35    17    37 1   
    36    17    38 1   
    37    18    19 1   
    38    18    20 2   
    39    18    21 2   
    40    19    39 1   
    41    19    40 1   
    42    19    41 1   
@<TRIPOS>SUBSTRUCTURE
     1 MPX         1 TEMP              0 ****  ****    0 ROOT
