@<TRIPOS>MOLECULE
MPY
   68    72     1     0     0
SMALL
bcc


@<TRIPOS>ATOM
      1 N1           0.0000     0.0000     0.0000 n          1 MPY       0.431800
      2 N2           1.0530     0.0020     3.4050 nc         1 MPY      -0.005400
      3 C3           2.9160     0.0010     2.2460 cd         1 MPY       0.701900
      4 N4           2.3320     0.0010     3.4760 nd         1 MPY      -0.278300
      5 N5           4.2150    -0.0010     1.9750 ne         1 MPY      -0.523100
      6 C6           4.6340    -0.0030     0.7010 c          1 MPY       0.740100
      7 C7           6.0810    -0.0050     0.3990 ca         1 MPY      -0.198600
      8 O8           3.8230    -0.0020    -0.2080 o          1 MPY      -0.628100
      9 C9           6.5200    -0.0060    -0.9270 ca         1 MPY      -0.009500
     10 C10          7.8680    -0.0060    -1.2050 ca         1 MPY      -0.175500
     11 C11          8.3600     0.0000     1.1570 ca         1 MPY      -0.175500
     12 C12          7.0130     0.0010     1.4400 ca         1 MPY      -0.009500
     13 C13          0.6020     0.0020     2.1420 cc         1 MPY      -0.080600
     14 C14          1.8070     0.0000     1.2800 cd         1 MPY      -0.358900
     15 C15          1.3680     0.0000     0.0000 cc         1 MPY      -0.108300
     16 C16         -0.4730     0.0020     1.2820 cd         1 MPY      -0.191300
     17 N17         10.1560    -0.0080    -0.4490 nh         1 MPY      -0.360000
     18 C18         10.9500    -0.0070     0.7860 c3         1 MPY       0.134800
     19 C19         12.4380    -0.0890     0.4320 c3         1 MPY       0.152800
     20 N20         12.7990     1.0490    -0.4230 n3         1 MPY      -0.549600
     21 C21         12.0030     1.0490    -1.6590 c3         1 MPY       0.152800
     22 C22         10.5160     1.1300    -1.3050 c3         1 MPY       0.134800
     23 C23         14.2370     1.0470    -0.7230 c3         1 MPY       0.190100
     24 C24          8.7940    -0.0070    -0.1660 ca         1 MPY       0.057600
     25 C25         -0.7710     0.0050    -1.1060 c          1 MPY       0.423900
     26 O26         -0.2550     0.0090    -2.2050 o          1 MPY      -0.618100
     27 C27         -2.9130     0.1520    -2.1300 ca         1 MPY      -0.102400
     28 C28         -3.7560    -0.8790    -2.5260 ca         1 MPY      -0.061800
     29 C29         -2.8700     1.3300    -2.8640 ca         1 MPY      -0.061800
     30 N30         -2.1140     0.0060    -0.9910 ns         1 MPY      -0.040100
     31 C31         -4.5470    -0.7300    -3.6470 ca         1 MPY      -0.106000
     32 C32         -3.8040    -2.1590    -1.7330 c3         1 MPY       0.013900
     33 C33         -3.6640     1.4730    -3.9850 ca         1 MPY      -0.106000
     34 C34         -1.9580     2.4510    -2.4380 c3         1 MPY       0.013900
     35 C35         -4.5020     0.4450    -4.3770 ca         1 MPY      -0.077000
     36 C36         -4.7860    -2.0010    -0.5700 c3         1 MPY       0.001400
     37 C37         -1.9760     3.5550    -3.4980 c3         1 MPY       0.001400
     38 H9           5.8000    -0.0060    -1.7360 ha         1 MPY       0.121500
     39 H10          8.2090    -0.0100    -2.2330 ha         1 MPY       0.123000
     40 H11          9.0820     0.0020     1.9640 ha         1 MPY       0.123000
     41 H12          6.6760     0.0070     2.4700 ha         1 MPY       0.121500
     42 H15          1.9980    -0.0010    -0.8810 h4         1 MPY       0.205000
     43 H16         -1.5170     0.0020     1.5730 h4         1 MPY       0.151000
     44 H181        10.6770    -0.8630     1.3910 h1         1 MPY       0.026450
     45 H182        10.7610     0.9060     1.3360 h1         1 MPY       0.026450
     46 H191        13.0260    -0.0570     1.3410 h1         1 MPY       0.015700
     47 H192        12.6310    -1.0140    -0.0980 h1         1 MPY       0.015700
     48 H211        12.1930     0.1350    -2.2090 h1         1 MPY       0.015700
     49 H212        12.2770     1.9050    -2.2640 h1         1 MPY       0.015700
     50 H221         9.9270     1.0980    -2.2140 h1         1 MPY       0.026450
     51 H222        10.3220     2.0550    -0.7750 h1         1 MPY       0.026450
     52 H231        14.4920     0.1430    -1.2630 h1         1 MPY       0.001033
     53 H232        14.7980     1.0860     0.2020 h1         1 MPY       0.001033
     54 H233        14.4800     1.9110    -1.3300 h1         1 MPY       0.001033
     55 H30         -2.5400    -0.0820    -0.0890 hn         1 MPY       0.175500
     56 H31         -5.2040    -1.5340    -3.9560 ha         1 MPY       0.117000
     57 H321        -2.8180    -2.3820    -1.3440 hc         1 MPY       0.025950
     58 H322        -4.1310    -2.9690    -2.3730 hc         1 MPY       0.025950
     59 H33         -3.6300     2.3910    -4.5580 ha         1 MPY       0.117000
     60 H341        -2.2980     2.8530    -1.4910 hc         1 MPY       0.025950
     61 H342        -0.9480     2.0730    -2.3270 hc         1 MPY       0.025950
     62 H35         -5.1240     0.5590    -5.2570 ha         1 MPY       0.104000
     63 H361        -5.6750    -2.5890    -0.7660 hc         1 MPY       0.006033
     64 H362        -5.0580    -0.9580    -0.4670 hc         1 MPY       0.006033
     65 H363        -4.3200    -2.3450     0.3450 hc         1 MPY       0.006033
     66 H371        -1.7070     3.1360    -4.4600 hc         1 MPY       0.006033
     67 H372        -1.2640     4.3260    -3.2290 hc         1 MPY       0.006033
     68 H373        -2.9690     3.9840    -3.5550 hc         1 MPY       0.006033
@<TRIPOS>BOND
     1     1    15 1   
     2     1    16 1   
     3     1    25 1   
     4     2     4 2   
     5     2    13 1   
     6     3     4 1   
     7     3     5 2   
     8     3    14 1   
     9     5     6 1   
    10     6     7 1   
    11     6     8 2   
    12     7     9 ar  
    13     7    12 ar  
    14     9    10 ar  
    15     9    38 1   
    16    10    24 ar  
    17    10    39 1   
    18    11    12 ar  
    19    11    24 ar  
    20    11    40 1   
    21    12    41 1   
    22    13    14 1   
    23    13    16 2   
    24    14    15 2   
    25    15    42 1   
    26    16    43 1   
    27    17    18 1   
    28    17    22 1   
    29    17    24 1   
    30    18    19 1   
    31    18    44 1   
    32    18    45 1   
    33    19    20 1   
    34    19    46 1   
    35    19    47 1   
    36    20    21 1   
    37    20    23 1   
    38    21    22 1   
    39    21    48 1   
    40    21    49 1   
    41    22    50 1   
    42    22    51 1   
    43    23    52 1   
    44    23    53 1   
    45    23    54 1   
    46    25    26 2   
    47    25    30 1   
    48    27    28 ar  
    49    27    29 ar  
    50    27    30 1   
    51    28    31 ar  
    52    28    32 1   
    53    29    33 ar  
    54    29    34 1   
    55    30    55 1   
    56    31    35 ar  
    57    31    56 1   
    58    32    36 1   
    59    32    57 1   
    60    32    58 1   
    61    33    35 ar  
    62    33    59 1   
    63    34    37 1   
    64    34    60 1   
    65    34    61 1   
    66    35    62 1   
    67    36    63 1   
    68    36    64 1   
    69    36    65 1   
    70    37    66 1   
    71    37    67 1   
    72    37    68 1   
@<TRIPOS>SUBSTRUCTURE
     1 MPY         1 TEMP              0 ****  ****    0 ROOT
