@<TRIPOS>MOLECULE
molecule
   65    69     1     0     0
SMALL
bcc


@<TRIPOS>ATOM
      1 O16          0.0000     0.0000     0.0000 o          1 MPZ      -0.590100
      2 C15          1.2160     0.0000     0.0000 c          1 MPZ       0.673700
      3 C14          1.9550     0.0000     1.2800 ca         1 MPZ      -0.151600
      4 C13          1.2600     0.0010     2.4910 ca         1 MPZ      -0.085500
      5 C12          1.9570     0.0020     3.6810 ca         1 MPZ      -0.128500
      6 C11          3.3510    -0.0000     1.2840 ca         1 MPZ      -0.085500
      7 C10          4.0350     0.0040     2.4820 ca         1 MPZ      -0.128500
      8 C09          3.3400    -0.0000     3.6780 ca         1 MPZ      -0.055300
      9 C08          4.0930    -0.0010     4.9830 c3         1 MPZ       0.177100
     10 N07          4.3370    -1.3850     5.4070 n3         1 MPZ      -0.668600
     11 C06          5.0710    -1.3150     6.6770 c3         1 MPZ       0.132300
     12 C05          5.4680    -2.7240     7.1200 c3         1 MPZ       0.136300
     13 C04          5.2490    -1.9740     4.4200 c3         1 MPZ       0.132300
     14 C03          5.6460    -3.3830     4.8640 c3         1 MPZ       0.136300
     15 NP2          6.3800    -3.3130     6.1330 n3         1 MPZ      -0.678600
     16 C01          6.6230    -4.6980     6.5570 c3         1 MPZ       0.125100
     17 N17          1.8890    -0.0010    -1.1670 ns         1 MPZ      -0.474100
     18 C18          1.1950    -0.1150    -2.3740 ca         1 MPZ       0.076600
     19 C19          1.6720     0.5220    -3.5140 ca         1 MPZ      -0.183000
     20 C20          0.9860     0.4080    -4.7080 ca         1 MPZ      -0.096000
     21 C21         -0.1750    -0.3360    -4.7730 ca         1 MPZ      -0.145000
     22 C23         -0.6580    -0.9740    -3.6370 ca         1 MPZ       0.176600
     23 C22          0.0320    -0.8680    -2.4380 ca         1 MPZ      -0.165000
     24 N24         -1.8340    -1.7280    -3.7040 nu         1 MPZ      -0.750300
     25 C25         -2.8540    -1.3450    -4.5600 ca         1 MPZ       0.942900
     26 N26         -2.7410    -0.2080    -5.2320 nb         1 MPZ      -0.784000
     27 C27         -3.6940     0.1920    -6.0580 ca         1 MPZ       0.497200
     28 C28         -4.8230    -0.5910    -6.2200 ca         1 MPZ      -0.428600
     29 C30         -4.9140    -1.7840    -5.4990 cp         1 MPZ       0.560800
     30 N29         -3.9140    -2.1260    -4.6890 nb         1 MPZ      -0.790000
     31 C31         -6.1040    -2.6590    -5.6370 cp         1 MPZ      -0.277800
     32 C32         -5.9630    -4.0490    -5.6750 ca         1 MPZ      -0.052000
     33 C36         -7.1050    -4.8210    -5.8050 ca         1 MPZ      -0.261300
     34 C35         -8.3360    -4.1980    -5.8930 ca         1 MPZ       0.429200
     35 N34         -8.4370    -2.8830    -5.8530 nb         1 MPZ      -0.692000
     36 C33         -7.3800    -2.1080    -5.7250 ca         1 MPZ       0.442200
     37 H13          0.1770     0.0030     2.4950 ha         1 MPZ       0.141500
     38 H12          1.4190     0.0000     4.6220 ha         1 MPZ       0.139000
     39 H11          3.8960     0.0040     0.3470 ha         1 MPZ       0.141500
     40 H10          5.1180     0.0040     2.4860 ha         1 MPZ       0.139000
     41 H081         5.0400     0.5090     4.8530 h1         1 MPZ       0.046700
     42 H082         3.5080     0.5100     5.7380 h1         1 MPZ       0.046700
     43 H061         5.9640    -0.7160     6.5430 h1         1 MPZ       0.046200
     44 H062         4.4390    -0.8650     7.4330 h1         1 MPZ       0.046200
     45 H051         5.9650    -2.6720     8.0820 h1         1 MPZ       0.045700
     46 H052         4.5800    -3.3390     7.2000 h1         1 MPZ       0.045700
     47 H041         6.1380    -1.3590     4.3400 h1         1 MPZ       0.046200
     48 H042         4.7530    -2.0260     3.4590 h1         1 MPZ       0.046200
     49 H031         4.7540    -3.9820     4.9970 h1         1 MPZ       0.045700
     50 H032         6.2790    -3.8330     4.1080 h1         1 MPZ       0.045700
     51 H011         5.6790    -5.2230     6.6350 h1         1 MPZ       0.035700
     52 H012         7.2520    -5.1940     5.8270 h1         1 MPZ       0.035700
     53 H013         7.1190    -4.6990     7.5210 h1         1 MPZ       0.035700
     54 H17          2.8860     0.0940    -1.1690 hn         1 MPZ       0.325500
     55 H19          2.5830     1.1060    -3.4670 ha         1 MPZ       0.127000
     56 H20          1.3600     0.9050    -5.5950 ha         1 MPZ       0.133000
     57 H21         -0.7120    -0.4200    -5.7100 ha         1 MPZ       0.156000
     58 H22         -0.3430    -1.3640    -1.5500 ha         1 MPZ       0.163000
     59 H24         -1.9200    -2.5690    -3.1680 hn         1 MPZ       0.468800
     60 H27         -3.5910     1.1230    -6.6020 h4         1 MPZ       0.031100
     61 H28         -5.6180    -0.2860    -6.8880 ha         1 MPZ       0.149000
     62 H32         -4.9850    -4.5110    -5.6040 ha         1 MPZ       0.154000
     63 H36         -7.0340    -5.9010    -5.8380 ha         1 MPZ       0.141000
     64 H35         -9.2310    -4.7990    -5.9970 h4         1 MPZ       0.024100
     65 H33         -7.5040    -1.0330    -5.6970 h4         1 MPZ       0.028100
@<TRIPOS>BOND
     1     1     2 2
     2     2     3 1
     3     2    17 1
     4     3     4 ar
     5     3     6 ar
     6     4     5 ar
     7     4    37 1
     8     5     8 ar
     9     5    38 1
    10     6     7 ar
    11     6    39 1
    12     7     8 ar
    13     7    40 1
    14     8     9 1
    15     9    10 1
    16     9    41 1
    17     9    42 1
    18    10    11 1
    19    10    13 1
    20    11    12 1
    21    11    43 1
    22    11    44 1
    23    12    15 1
    24    12    45 1
    25    12    46 1
    26    13    14 1
    27    13    47 1
    28    13    48 1
    29    14    15 1
    30    14    49 1
    31    14    50 1
    32    15    16 1
    33    16    51 1
    34    16    52 1
    35    16    53 1
    36    17    18 1
    37    17    54 1
    38    18    19 ar
    39    18    23 ar
    40    19    20 ar
    41    19    55 1
    42    20    21 ar
    43    20    56 1
    44    21    22 ar
    45    21    57 1
    46    22    23 ar
    47    22    24 1
    48    23    58 1
    49    24    25 1
    50    24    59 1
    51    25    26 ar
    52    25    30 ar
    53    26    27 ar
    54    27    28 ar
    55    27    60 1
    56    28    29 ar
    57    28    61 1
    58    29    30 ar
    59    29    31 1
    60    31    32 ar
    61    31    36 ar
    62    32    33 ar
    63    32    62 1
    64    33    34 ar
    65    33    63 1
    66    34    35 ar
    67    34    64 1
    68    35    36 ar
    69    36    65 1
@<TRIPOS>SUBSTRUCTURE
     1 MPZ         1 TEMP              0 ****  ****    0 ROOT
