@<TRIPOS>MOLECULE
molecule
   49    52     1     0     0
SMALL
bcc


@<TRIPOS>ATOM
      1 C1           0.0000     0.0000     0.0000 ca         1 MQ0      -0.113000
      2 C2           1.3650     0.0000     0.0000 ca         1 MQ0      -0.111000
      3 C3           2.0790     0.0000     1.1950 ca         1 MQ0      -0.100000
      4 C4           1.4390    -0.0020     2.3980 ca         1 MQ0      -0.152300
      5 C5           0.0350    -0.0030     2.4370 ca         1 MQ0       0.375600
      6 N6          -0.6390    -0.0050     3.5890 nb         1 MQ0      -0.281000
      7 N7          -1.9200    -0.0070     3.6390 nb         1 MQ0      -0.293000
      8 C8          -2.7040    -0.0060     2.5750 ca         1 MQ0       0.175600
      9 C9          -2.1490    -0.0110     1.2920 ca         1 MQ0       0.154100
     10 C10         -0.6850    -0.0030     1.2160 ca         1 MQ0      -0.133300
     11 N11         -2.9230    -0.0160     0.1780 ne         1 MQ0      -0.678100
     12 C12         -3.2920    -1.1570    -0.3620 cf         1 MQ0       0.575500
     13 C13         -4.0930    -1.1620    -1.5140 cf         1 MQ0      -0.315600
     14 C16         -5.3220    -2.3620    -3.2920 ca         1 MQ0      -0.106300
     15 C15         -4.4790    -2.3560    -2.0790 ce         1 MQ0       0.132600
     16 C17         -4.8660    -1.7560    -4.4660 ca         1 MQ0      -0.105000
     17 C18         -5.6580    -1.7660    -5.5940 ca         1 MQ0      -0.123500
     18 C19         -6.9020    -2.3720    -5.5670 ca         1 MQ0      -0.101500
     19 C20         -4.2020    -0.0090     2.7460 c3         1 MQ0       0.088500
     20 N19         -4.6900     1.3750     2.8020 nz         1 MQ0      -0.807600
     21 C21         -7.3590    -2.9730    -4.4080 ca         1 MQ0      -0.123500
     22 C22         -6.5750    -2.9770    -3.2730 ca         1 MQ0      -0.105000
     23 C23         -4.0500    -3.6320    -1.4710 ca         1 MQ0      -0.106300
     24 C24         -4.4100    -3.9380    -0.1570 ca         1 MQ0      -0.105000
     25 C25         -4.0060    -5.1320     0.4050 ca         1 MQ0      -0.123500
     26 C26         -3.2470    -6.0240    -0.3320 ca         1 MQ0      -0.101500
     27 C27         -2.8890    -5.7280    -1.6350 ca         1 MQ0      -0.123500
     28 C28         -3.2900    -4.5410    -2.2110 ca         1 MQ0      -0.105000
     29 HC1         -0.2830     0.1840    -1.0300 ha         1 MQ0       0.163000
     30 HC2          1.9480     0.0000    -0.9130 ha         1 MQ0       0.152000
     31 HC3          3.1610     0.0160     1.1560 ha         1 MQ0       0.155000
     32 HC4          2.0520     0.0040     3.2910 ha         1 MQ0       0.169000
     33 HC12        -2.9780    -2.0930     0.0830 h4         1 MQ0       0.008800
     34 HC13        -4.4070    -0.2260    -1.9600 ha         1 MQ0       0.163000
     35 HC17        -3.8920    -1.2810    -4.4890 ha         1 MQ0       0.134500
     36 HC18        -5.3060    -1.2960    -6.5050 ha         1 MQ0       0.143750
     37 HC19        -7.5210    -2.3740    -6.4560 ha         1 MQ0       0.145000
     38 H201        -4.4600    -0.5200     3.6650 hx         1 MQ0       0.113200
     39 H202        -4.6600    -0.5200     1.9080 hx         1 MQ0       0.113200
     40 HN91        -4.4390     1.7820     3.6810 hn         1 MQ0       0.457133
     41 HN92        -5.6860     1.3810     2.7040 hn         1 MQ0       0.457133
     42 HC21        -8.3330    -3.4480    -4.3930 ha         1 MQ0       0.143750
     43 HC22        -6.9350    -3.4480    -2.3660 ha         1 MQ0       0.134500
     44 HC24        -5.0040    -3.2400     0.4200 ha         1 MQ0       0.134500
     45 HC25        -4.2840    -5.3700     1.4240 ha         1 MQ0       0.143750
     46 HC26        -2.9310    -6.9590     0.1150 ha         1 MQ0       0.145000
     47 HC27        -2.2960    -6.4320    -2.2060 ha         1 MQ0       0.143750
     48 HC28        -3.0080    -4.3090    -3.2310 ha         1 MQ0       0.134500
     49 H193        -4.2720     1.9070     2.0650 hn         1 MQ0       0.457133
@<TRIPOS>BOND
     1     1     2 ar
     2     1    10 ar
     3     1    29 1
     4     2     3 ar
     5     2    30 1
     6     3     4 ar
     7     3    31 1
     8     4     5 ar
     9     4    32 1
    10     5     6 ar
    11     5    10 ar
    12     6     7 ar
    13     7     8 ar
    14     8     9 ar
    15     8    19 1
    16     9    10 ar
    17     9    11 1
    18    11    12 2
    19    12    13 1
    20    12    33 1
    21    13    15 2
    22    13    34 1
    23    14    15 1
    24    14    16 ar
    25    14    22 ar
    26    15    23 1
    27    16    17 ar
    28    16    35 1
    29    17    18 ar
    30    17    36 1
    31    18    21 ar
    32    18    37 1
    33    19    20 1
    34    19    38 1
    35    19    39 1
    36    20    40 1
    37    20    41 1
    38    21    22 ar
    39    21    42 1
    40    22    43 1
    41    23    24 ar
    42    23    28 ar
    43    24    25 ar
    44    24    44 1
    45    25    26 ar
    46    25    45 1
    47    26    27 ar
    48    26    46 1
    49    27    28 ar
    50    27    47 1
    51    28    48 1
    52    49    20 1
@<TRIPOS>SUBSTRUCTURE
     1 MQ0         1 TEMP              0 ****  ****    0 ROOT
