@<TRIPOS>MOLECULE
MQ0
   49    54     1     0     0
SMALL
bcc


@<TRIPOS>ATOM
      1 C1           0.0000     0.0000     0.0000 ca         1 MQ0      -0.084000
      2 C2           1.3650     0.0000     0.0000 ca         1 MQ0      -0.088000
      3 C3           2.0790     0.0000     1.1950 ca         1 MQ0      -0.072000
      4 C4           1.4390    -0.0020     2.3980 ca         1 MQ0      -0.060000
      5 C5           0.0350    -0.0030     2.4370 ca         1 MQ0      -0.032000
      6 N6          -0.6390    -0.0050     3.5890 n2         1 MQ0      -0.002000
      7 N7          -1.9200    -0.0070     3.6390 n2         1 MQ0       0.016000
      8 C8          -2.7040    -0.0060     2.5750 c2         1 MQ0      -0.304000
      9 C9          -2.1490    -0.0110     1.2920 c2         1 MQ0       0.116000
     10 C10         -0.6850    -0.0030     1.2160 ca         1 MQ0      -0.069000
     11 N11         -2.9230    -0.0160     0.1780 n2         1 MQ0      -0.165000
     12 C12         -3.2920    -1.1570    -0.3620 c3         1 MQ0      -0.278000
     13 C13         -4.0930    -1.1620    -1.5140 c3         1 MQ0      -0.511000
     14 C16         -5.3220    -2.3620    -3.2920 ca         1 MQ0      -0.155000
     15 C15         -4.4790    -2.3560    -2.0790 c2         1 MQ0       0.335000
     16 C17         -4.8660    -1.7560    -4.4660 ca         1 MQ0      -0.043750
     17 C18         -5.6580    -1.7660    -5.5940 ca         1 MQ0      -0.100500
     18 C19         -6.9020    -2.3720    -5.5670 ca         1 MQ0      -0.047500
     19 C20         -4.2020    -0.0090     2.7460 c3         1 MQ0      -0.186000
     20 N19         -4.6900     1.3750     2.8020 nz         1 MQ0       0.845000
     21 C21         -7.3590    -2.9730    -4.4080 ca         1 MQ0      -0.100500
     22 C22         -6.5750    -2.9770    -3.2730 ca         1 MQ0      -0.043750
     23 C23         -4.0500    -3.6320    -1.4710 ca         1 MQ0      -0.155000
     24 C24         -4.4100    -3.9380    -0.1570 ca         1 MQ0      -0.043750
     25 C25         -4.0060    -5.1320     0.4050 ca         1 MQ0      -0.100500
     26 C26         -3.2470    -6.0240    -0.3320 ca         1 MQ0      -0.047500
     27 C27         -2.8890    -5.7280    -1.6350 ca         1 MQ0      -0.100500
     28 C28         -3.2900    -4.5410    -2.2110 ca         1 MQ0      -0.043750
     29 HC1         -0.2800     0.1970    -1.0280 ha         1 MQ0       0.127000
     30 HC2          1.9370    -0.0300    -0.9200 ha         1 MQ0       0.117000
     31 HC3          3.1620     0.0040     1.1680 ha         1 MQ0       0.118000
     32 HC4          2.0570    -0.0040     3.2880 ha         1 MQ0       0.132000
     33 HC12        -4.3610    -0.9770    -0.3650 DU         1 MQ0       0.304000
     34 HC13        -3.0240    -1.3400    -1.5110 DU         1 MQ0       0.304000
     35 HC17        -3.8920    -1.2810    -4.4890 ha         1 MQ0       0.106500
     36 HC18        -5.3060    -1.2960    -6.5050 ha         1 MQ0       0.117500
     37 HC19        -7.5210    -2.3740    -6.4560 ha         1 MQ0       0.115000
     38 H201        -4.4600    -0.5200     3.6650 hx         1 MQ0       0.119000
     39 H202        -4.6600    -0.5200     1.9070 hx         1 MQ0       0.119000
     40 HN91        -4.2370     1.9180     2.0940 hn         1 MQ0       0.018333
     41 HN92        -5.6790     1.3860     2.6490 hn         1 MQ0       0.018333
     42 HC21        -8.3330    -3.4480    -4.3930 ha         1 MQ0       0.117500
     43 HC22        -6.9350    -3.4480    -2.3660 ha         1 MQ0       0.106500
     44 HC24        -5.0040    -3.2400     0.4200 ha         1 MQ0       0.106500
     45 HC25        -4.2840    -5.3700     1.4240 ha         1 MQ0       0.117500
     46 HC26        -2.9310    -6.9590     0.1150 ha         1 MQ0       0.115000
     47 HC27        -2.2960    -6.4320    -2.2060 ha         1 MQ0       0.117500
     48 HC28        -3.0080    -4.3090    -3.2310 ha         1 MQ0       0.106500
     49 H193        -4.4950     1.7610     3.7040 hn         1 MQ0       0.018333
@<TRIPOS>BOND
     1     1     2 1   
     2     1    10 1   
     3     1    29 1   
     4     2     3 1   
     5     2    30 1   
     6     3     4 1   
     7     3    31 1   
     8     4     5 1   
     9     4    32 1   
    10     5     6 1   
    11     5    10 1   
    12     6     7 1   
    13     7     8 1   
    14     8     9 1   
    15     8    19 1   
    16     9    10 1   
    17     9    11 1   
    18    11    12 1   
    19    12    13 1   
    20    12    33 1   
    21    12    34 1   
    22    13    15 1   
    23    13    33 1   
    24    13    34 1   
    25    14    15 1   
    26    14    16 1   
    27    14    22 1   
    28    15    23 1   
    29    16    17 1   
    30    16    35 1   
    31    17    18 1   
    32    17    36 1   
    33    18    21 1   
    34    18    37 1   
    35    19    20 1   
    36    19    38 1   
    37    19    39 1   
    38    20    40 1   
    39    20    41 1   
    40    20    49 1   
    41    21    22 1   
    42    21    42 1   
    43    22    43 1   
    44    23    24 1   
    45    23    28 1   
    46    24    25 1   
    47    24    44 1   
    48    25    26 1   
    49    25    45 1   
    50    26    27 1   
    51    26    46 1   
    52    27    28 1   
    53    27    47 1   
    54    28    48 1   
@<TRIPOS>SUBSTRUCTURE
     1 MQ0         1 TEMP              0 ****  ****    0 ROOT
