@<TRIPOS>MOLECULE
MQ1
   35    37     1     0     0
SMALL
bcc


@<TRIPOS>ATOM
      1 C1           0.0000     0.0000     0.0000 ca         1 MQ1       0.438600
      2 C2           1.4150     0.0000     0.0000 ca         1 MQ1      -0.316600
      3 C3           2.0880     0.0000     1.2440 ca         1 MQ1       0.581200
      4 N4           1.3600    -0.0090     2.3520 nb         1 MQ1      -0.660000
      5 C5           0.0310    -0.0130     2.3090 ca         1 MQ1       0.728900
      6 N6          -0.6450    -0.0090     1.1770 nb         1 MQ1      -0.631000
      7 N7           3.4650     0.0030     1.3030 nv         1 MQ1      -0.649500
      8 C8          -0.6890     0.0040    -1.2190 ca         1 MQ1      -0.197300
      9 C9           0.0070     0.0130    -2.3920 ca         1 MQ1      -0.032000
     10 C12          1.3960     0.0170    -2.4020 ca         1 MQ1      -0.237000
     11 C13          2.1100     0.0140    -1.2200 ca         1 MQ1       0.176100
     12 N14         -0.6700    -0.0200     3.5010 nv         1 MQ1      -0.643500
     13 O20          3.4660     0.0190    -1.2380 os         1 MQ1      -0.181200
     14 C22          3.8410     0.1680    -2.5350 ca         1 MQ1       0.041100
     15 C23          4.1280    -0.9470    -3.3090 ca         1 MQ1      -0.075000
     16 C24          4.5100    -0.7940    -4.6270 ca         1 MQ1      -0.169000
     17 C25          4.6070     0.4750    -5.1780 ca         1 MQ1       0.133100
     18 C26          4.3250     1.5900    -4.4040 ca         1 MQ1      -0.169000
     19 C27          3.9380     1.4370    -3.0880 ca         1 MQ1      -0.075000
     20 O32          4.9840     0.6250    -6.4760 os         1 MQ1      -0.278900
     21 C33          4.9910     2.0270    -6.7450 c3         1 MQ1       0.215700
     22 H71          3.9660    -0.8620     1.3420 hn         1 MQ1       0.285300
     23 H72          3.9610     0.8710     1.3650 hn         1 MQ1       0.285300
     24 H8          -1.7730     0.0010    -1.2300 ha         1 MQ1       0.123000
     25 H9          -0.5320     0.0160    -3.3320 ha         1 MQ1       0.102000
     26 H12          1.9250     0.0240    -3.3480 ha         1 MQ1       0.142000
     27 H141        -0.9230    -0.8900     3.9270 hn         1 MQ1       0.279800
     28 H142        -0.9270     0.8440     3.9360 hn         1 MQ1       0.279800
     29 H23          4.0530    -1.9380    -2.8780 ha         1 MQ1       0.117000
     30 H24          4.7320    -1.6650    -5.2310 ha         1 MQ1       0.129000
     31 H26          4.4000     2.5810    -4.8350 ha         1 MQ1       0.129000
     32 H27          3.7180     2.3090    -2.4830 ha         1 MQ1       0.117000
     33 H331         3.9970     2.4300    -6.5880 h1         1 MQ1       0.003700
     34 H332         5.2910     2.1970    -7.7720 h1         1 MQ1       0.003700
     35 H333         5.6890     2.5200    -6.0790 h1         1 MQ1       0.003700
@<TRIPOS>BOND
     1     1     2 ar  
     2     1     6 ar  
     3     1     8 ar  
     4     2     3 ar  
     5     2    11 ar  
     6     3     4 ar  
     7     3     7 1   
     8     4     5 ar  
     9     5     6 ar  
    10     5    12 1   
    11     7    22 1   
    12     7    23 1   
    13     8     9 ar  
    14     8    24 1   
    15     9    10 ar  
    16     9    25 1   
    17    10    11 ar  
    18    10    26 1   
    19    11    13 1   
    20    12    27 1   
    21    12    28 1   
    22    13    14 1   
    23    14    15 ar  
    24    14    19 ar  
    25    15    16 ar  
    26    15    29 1   
    27    16    17 ar  
    28    16    30 1   
    29    17    18 ar  
    30    17    20 1   
    31    18    19 ar  
    32    18    31 1   
    33    19    32 1   
    34    20    21 1   
    35    21    33 1   
    36    21    34 1   
    37    21    35 1   
@<TRIPOS>SUBSTRUCTURE
     1 MQ1         1 TEMP              0 ****  ****    0 ROOT
