@<TRIPOS>MOLECULE
molecule
  112   113     1     0     0
SMALL
bcc


@<TRIPOS>ATOM
      1 C1           0.0000     0.0000     0.0000 c          1 MQ7       0.576900
      2 O1          -0.6100     0.0000    -1.0510 o          1 MQ7      -0.507100
      3 C2           1.4740     0.0000     0.0000 cc         1 MQ7      -0.128400
      4 C2M          2.2180     0.0000    -1.3100 c3         1 MQ7      -0.058900
      5 C3           2.1630     0.0000     1.1500 cd         1 MQ7      -0.105400
      6 C4           1.4650    -0.0060     2.4490 c          1 MQ7       0.582900
      7 O4           2.1040    -0.0120     3.4830 o          1 MQ7      -0.520100
      8 C5          -0.0120    -0.0000     2.4900 ca         1 MQ7      -0.134600
      9 C6          -0.6920    -0.0010     3.7020 ca         1 MQ7      -0.080000
     10 C7          -2.0790    -0.0010     3.7130 ca         1 MQ7      -0.117000
     11 C8          -2.7890    -0.0010     2.5270 ca         1 MQ7      -0.116000
     12 C9          -2.1240    -0.0000     1.3110 ca         1 MQ7      -0.080000
     13 C10         -0.7340     0.0000     1.2840 ca         1 MQ7      -0.134600
     14 C11          3.6680    -0.0010     1.1140 c3         1 MQ7      -0.046000
     15 C12          4.1710     1.4200     1.1030 c2         1 MQ7      -0.512200
     16 C13          5.0330     1.8170     2.0060 c2         1 MQ7       0.056600
     17 C14          5.6060     0.8270     2.9870 c3         1 MQ7      -0.134900
     18 C15          5.4530     3.2630     2.0610 c3         1 MQ7      -0.068200
     19 C16          4.5130     4.0310     2.9910 c3         1 MQ7      -0.085200
     20 C17          4.9330     5.4770     3.0480 c2         1 MQ7      -0.543200
     21 C18          4.0680     6.4220     2.7720 c2         1 MQ7       0.007600
     22 C19          2.6240     6.0720     2.5220 c3         1 MQ7      -0.136900
     23 C20          4.5170     7.8590     2.7060 c3         1 MQ7       0.005800
     24 C21          4.9500     8.1930     1.2780 c3         1 MQ7      -0.084200
     25 C22          5.3990     9.6300     1.2120 c2         1 MQ7      -0.540200
     26 C23          6.5920     9.9230     0.7570 c2         1 MQ7       0.020600
     27 C24          7.5600     8.8200     0.4170 c3         1 MQ7      -0.138900
     28 C25          6.9950    11.3620     0.5750 c3         1 MQ7      -0.001200
     29 C26          7.6400    11.8790     1.8620 c3         1 MQ7      -0.075200
     30 C27          8.0430    13.3190     1.6800 c2         1 MQ7      -0.522200
     31 C28          7.6100    14.2310     2.5130 c2         1 MQ7       0.039600
     32 C29          6.8010    13.8270     3.7190 c3         1 MQ7      -0.132900
     33 C30          7.9200    15.6850     2.2670 c3         1 MQ7      -0.006200
     34 C31          6.8130    16.3060     1.4140 c3         1 MQ7      -0.076200
     35 C32          7.1240    17.7600     1.1670 c2         1 MQ7      -0.517200
     36 C33          7.1710    18.2210    -0.0580 c2         1 MQ7       0.037600
     37 C34          6.8060    17.3260    -1.2140 c3         1 MQ7      -0.132900
     38 C35          7.5930    19.6460    -0.3100 c3         1 MQ7      -0.006200
     39 C36          9.1090    19.7030    -0.5020 c3         1 MQ7      -0.075200
     40 C37          9.5300    21.1280    -0.7540 c2         1 MQ7      -0.514200
     41 C38         10.4500    21.6820    -0.0040 c2         1 MQ7       0.047600
     42 C39         11.1760    20.8590     1.0280 c3         1 MQ7      -0.131900
     43 C40         10.7820    23.1420    -0.1740 c3         1 MQ7      -0.041200
     44 C41          9.8920    23.9780     0.7450 c3         1 MQ7      -0.037200
     45 C42         10.2240    25.4390     0.5750 c2         1 MQ7      -0.188200
     46 C43          9.2790    26.2950     0.2760 c2         1 MQ7      -0.125400
     47 C44          9.6290    27.7310    -0.0170 c3         1 MQ7      -0.052900
     48 C45          7.8420    25.8440     0.2250 c3         1 MQ7      -0.052900
     49 H2M1         2.8340     0.8890    -1.3760 hc         1 MQ7       0.059700
     50 H2M2         1.5070    -0.0070    -2.1280 hc         1 MQ7       0.059700
     51 H2M3         2.8460    -0.8800    -1.3690 hc         1 MQ7       0.059700
     52 H6          -0.1420    -0.0010     4.6340 ha         1 MQ7       0.156000
     53 H7          -2.6090    -0.0020     4.6570 ha         1 MQ7       0.139000
     54 H8          -3.8720    -0.0010     2.5480 ha         1 MQ7       0.140000
     55 H9          -2.6860     0.0000     0.3850 ha         1 MQ7       0.157000
     56 H111         4.0500    -0.5120     1.9900 hc         1 MQ7       0.050700
     57 H112         4.0080    -0.5120     0.2210 hc         1 MQ7       0.050700
     58 H12          4.7340     0.6050     0.6630 ha         1 MQ7       0.320000
     59 H141         5.9930    -0.0300     2.4500 hc         1 MQ7       0.060033
     60 H142         4.8280     0.5050     3.6690 hc         1 MQ7       0.060033
     61 H143         6.4060     1.2950     3.5470 hc         1 MQ7       0.060033
     62 H151         6.4670     3.3300     2.4360 hc         1 MQ7       0.068700
     63 H152         5.4070     3.6910     1.0670 hc         1 MQ7       0.068700
     64 H161         3.4990     3.9640     2.6160 hc         1 MQ7       0.074200
     65 H162         4.5590     3.6030     3.9850 hc         1 MQ7       0.074200
     66 H17          4.7160     4.8960     2.1600 ha         1 MQ7       0.370000
     67 H191         2.0340     6.9790     2.4860 hc         1 MQ7       0.052367
     68 H192         2.5390     5.5470     1.5780 hc         1 MQ7       0.052367
     69 H193         2.2630     5.4370     3.3220 hc         1 MQ7       0.052367
     70 H201         3.6980     8.5070     2.9950 hc         1 MQ7       0.075200
     71 H202         5.3510     8.0080     3.3800 hc         1 MQ7       0.075200
     72 H211         5.7690     7.5450     0.9880 hc         1 MQ7       0.035200
     73 H212         4.1160     8.0440     0.6030 hc         1 MQ7       0.035200
     74 H22          5.1370     8.9900     0.3780 ha         1 MQ7       0.355000
     75 H241         8.4920     9.2510     0.0710 hc         1 MQ7       0.051700
     76 H242         7.7460     8.2180     1.2980 hc         1 MQ7       0.051700
     77 H243         7.1390     8.1970    -0.3630 hc         1 MQ7       0.051700
     78 H251         6.1190    11.9570     0.3460 hc         1 MQ7       0.066200
     79 H252         7.7050    11.4380    -0.2400 hc         1 MQ7       0.066200
     80 H261         8.5160    11.2840     2.0910 hc         1 MQ7       0.038200
     81 H262         6.9300    11.8030     2.6770 hc         1 MQ7       0.038200
     82 H27          8.5490    12.6630     2.3770 ha         1 MQ7       0.325000
     83 H291         7.3440    13.0790     4.2830 hc         1 MQ7       0.053367
     84 H292         5.8520    13.4180     3.3960 hc         1 MQ7       0.053367
     85 H293         6.6270    14.6950     4.3440 hc         1 MQ7       0.053367
     86 H301         7.9810    16.2070     3.2140 hc         1 MQ7       0.066700
     87 H302         8.8670    15.7700     1.7470 hc         1 MQ7       0.066700
     88 H311         5.8670    16.2220     1.9340 hc         1 MQ7       0.037700
     89 H312         6.7520    15.7840     0.4660 hc         1 MQ7       0.037700
     90 H32          6.1090    17.3810     1.1780 ha         1 MQ7       0.325000
     91 H341         7.5340    16.5290    -1.2980 hc         1 MQ7       0.052700
     92 H342         5.8230    16.9020    -1.0460 hc         1 MQ7       0.052700
     93 H343         6.7970    17.9050    -2.1300 hc         1 MQ7       0.052700
     94 H351         7.1020    20.0150    -1.2020 hc         1 MQ7       0.067200
     95 H352         7.3120    20.2600     0.5370 hc         1 MQ7       0.067200
     96 H361         9.6000    19.3340     0.3910 hc         1 MQ7       0.036700
     97 H362         9.3890    19.0890    -1.3480 hc         1 MQ7       0.036700
     98 H37         10.0930    20.2880    -1.1430 ha         1 MQ7       0.321000
     99 H391        10.4870    20.5760     1.8150 hc         1 MQ7       0.052700
    100 H392        11.9860    21.4410     1.4500 hc         1 MQ7       0.052700
    101 H393        11.5770    19.9670     0.5620 hc         1 MQ7       0.052700
    102 H401        11.8220    23.3080     0.0820 hc         1 MQ7       0.055200
    103 H402        10.6130    23.4340    -1.2040 hc         1 MQ7       0.055200
    104 H411        10.0610    23.6870     1.7740 hc         1 MQ7       0.056200
    105 H412         8.8520    23.8130     0.4890 hc         1 MQ7       0.056200
    106 H42         11.2570    25.7640     0.6110 ha         1 MQ7       0.121000
    107 H441         9.5250    28.3200     0.8860 hc         1 MQ7       0.041867
    108 H442         8.9620    28.1170    -0.7790 hc         1 MQ7       0.041867
    109 H443        10.6510    27.7890    -0.3700 hc         1 MQ7       0.041867
    110 H451         7.5980    25.3110     1.1360 hc         1 MQ7       0.041867
    111 H452         7.1960    26.7080     0.1280 hc         1 MQ7       0.041867
    112 H453         7.6990    25.1890    -0.6260 hc         1 MQ7       0.041867
@<TRIPOS>BOND
     1     1     2 2
     2     1     3 1
     3     1    13 1
     4     3     4 1
     5     3     5 2
     6     4    49 1
     7     4    50 1
     8     4    51 1
     9     5     6 1
    10     5    14 1
    11     6     7 2
    12     6     8 1
    13     8     9 ar
    14     8    13 ar
    15     9    10 ar
    16     9    52 1
    17    10    11 ar
    18    10    53 1
    19    11    12 ar
    20    11    54 1
    21    12    13 ar
    22    12    55 1
    23    14    15 1
    24    14    56 1
    25    14    57 1
    26    15    16 2
    27    15    58 1
    28    16    17 1
    29    16    18 1
    30    17    59 1
    31    17    60 1
    32    17    61 1
    33    18    19 1
    34    18    62 1
    35    18    63 1
    36    19    20 1
    37    19    64 1
    38    19    65 1
    39    20    21 2
    40    20    66 1
    41    21    22 1
    42    21    23 1
    43    22    67 1
    44    22    68 1
    45    22    69 1
    46    23    24 1
    47    23    70 1
    48    23    71 1
    49    24    25 1
    50    24    72 1
    51    24    73 1
    52    25    26 2
    53    25    74 1
    54    26    27 1
    55    26    28 1
    56    27    75 1
    57    27    76 1
    58    27    77 1
    59    28    29 1
    60    28    78 1
    61    28    79 1
    62    29    30 1
    63    29    80 1
    64    29    81 1
    65    30    31 2
    66    30    82 1
    67    31    32 1
    68    31    33 1
    69    32    83 1
    70    32    84 1
    71    32    85 1
    72    33    34 1
    73    33    86 1
    74    33    87 1
    75    34    35 1
    76    34    88 1
    77    34    89 1
    78    35    36 2
    79    35    90 1
    80    36    37 1
    81    36    38 1
    82    37    91 1
    83    37    92 1
    84    37    93 1
    85    38    39 1
    86    38    94 1
    87    38    95 1
    88    39    40 1
    89    39    96 1
    90    39    97 1
    91    40    41 2
    92    40    98 1
    93    41    42 1
    94    41    43 1
    95    42    99 1
    96    42   100 1
    97    42   101 1
    98    43    44 1
    99    43   102 1
   100    43   103 1
   101    44    45 1
   102    44   104 1
   103    44   105 1
   104    45    46 2
   105    45   106 1
   106    46    47 1
   107    46    48 1
   108    47   107 1
   109    47   108 1
   110    47   109 1
   111    48   110 1
   112    48   111 1
   113    48   112 1
@<TRIPOS>SUBSTRUCTURE
     1 MQ7         1 TEMP              0 ****  ****    0 ROOT
