@<TRIPOS>MOLECULE
MQ7
  112   113     1     0     0
SMALL
bcc


@<TRIPOS>ATOM
      1 C1          3.5550   -2.0030    1.3770 c         1 MQ7      0.570900
      2 O1          4.5710   -2.7000    1.2600 o         1 MQ7     -0.515100
      3 C2          3.2840   -1.2180    2.6080 cc        1 MQ7     -0.127400
      4 C2M         4.3810   -1.1740    3.6060 c3        1 MQ7     -0.069900
      5 C3          2.1030   -0.5940    2.8070 cd        1 MQ7     -0.126400
      6 C4          1.0000   -0.6770    1.8170 c         1 MQ7      0.574900
      7 O4         -0.1440   -0.2820    2.0790 o         1 MQ7     -0.519100
      8 C5          1.3300   -1.2580    0.4990 ca        1 MQ7     -0.132600
      9 C6          0.4030   -1.1750   -0.5450 ca        1 MQ7     -0.086000
     10 C7          0.7010   -1.7230   -1.7940 ca        1 MQ7     -0.117000
     11 C8          1.9210   -2.3610   -2.0020 ca        1 MQ7     -0.117000
     12 C9          2.8490   -2.4540   -0.9640 ca        1 MQ7     -0.085000
     13 C10         2.5610   -1.9010    0.2880 ca        1 MQ7     -0.133600
     14 C11         1.8120    0.2030    4.0360 c3        1 MQ7     -0.015000
     15 C12         2.2610    1.6120    3.8930 c2        1 MQ7     -0.187200
     16 C13         1.4500    2.6820    3.8820 c2        1 MQ7     -0.092400
     17 C14        -0.0260    2.5870    3.9860 c3        1 MQ7     -0.072900
     18 C15         2.0110    4.0610    3.7800 c3        1 MQ7     -0.044200
     19 C16         1.8280    4.6360    2.3870 c3        1 MQ7     -0.043200
     20 C17         2.3530    6.0180    2.2840 c2        1 MQ7     -0.175200
     21 C18         2.4580    6.6840    1.1230 c2        1 MQ7     -0.122400
     22 C19         2.0610    6.0800   -0.1710 c3        1 MQ7     -0.059900
     23 C20         2.9760    8.0810    1.0740 c3        1 MQ7     -0.039200
     24 C21         4.3270    8.1540    0.3850 c3        1 MQ7     -0.044200
     25 C22         4.8230    9.5450    0.2800 c2        1 MQ7     -0.174200
     26 C23         6.0560    9.8610   -0.1460 c2        1 MQ7     -0.123400
     27 C24         7.0410    8.8260   -0.5440 c3        1 MQ7     -0.058900
     28 C25         6.5020   11.2790   -0.2530 c3        1 MQ7     -0.038200
     29 C26         7.5740   11.6070    0.7720 c3        1 MQ7     -0.044200
     30 C27         8.0640   12.9980    0.6360 c2        1 MQ7     -0.174200
     31 C28         8.8960   13.5780    1.5160 c2        1 MQ7     -0.124400
     32 C29         9.3930   12.8660    2.7180 c3        1 MQ7     -0.058900
     33 C30         9.3770   14.9760    1.3250 c3        1 MQ7     -0.038200
     34 C31         8.8050   15.9130    2.3730 c3        1 MQ7     -0.044200
     35 C32         9.3200   17.2940    2.2240 c2        1 MQ7     -0.174200
     36 C33         8.8540   18.3380    2.9290 c2        1 MQ7     -0.124400
     37 C34         7.7620   18.1940    3.9210 c3        1 MQ7     -0.058900
     38 C35         9.4190   19.7060    2.7560 c3        1 MQ7     -0.038200
     39 C36         8.4200   20.6460    2.1050 c3        1 MQ7     -0.043200
     40 C37         8.9540   22.0220    1.9780 c2        1 MQ7     -0.174200
     41 C38         8.3270   23.0000    1.3040 c2        1 MQ7     -0.123400
     42 C39         7.0340   22.7760    0.6140 c3        1 MQ7     -0.058900
     43 C40         8.8960   24.3740    1.2200 c3        1 MQ7     -0.038200
     44 C41         9.3530   24.7070   -0.1890 c3        1 MQ7     -0.043200
     45 C42         9.8700   26.0910   -0.2930 c2        1 MQ7     -0.177200
     46 C43        10.4480   26.5810   -1.4010 c2        1 MQ7     -0.124400
     47 C44        10.9500   27.9750   -1.4700 c3        1 MQ7     -0.057900
     48 C45        10.6300   25.7650   -2.6260 c3        1 MQ7     -0.057900
     49 H2M1        5.3140   -1.6410    3.2020 hc        1 MQ7      0.060033
     50 H2M2        4.6060   -0.1160    3.8930 hc        1 MQ7      0.060033
     51 H2M3        4.0800   -1.7320    4.5290 hc        1 MQ7      0.060033
     52 H6         -0.5640   -0.6760   -0.3660 ha        1 MQ7      0.159000
     53 H7         -0.0330   -1.6510   -2.6110 ha        1 MQ7      0.142000
     54 H8          2.1570   -2.7960   -2.9860 ha        1 MQ7      0.142000
     55 H9          3.8150   -2.9640   -1.1160 ha        1 MQ7      0.160000
     56 H111        2.3440   -0.2550    4.9170 hc        1 MQ7      0.068700
     57 H112        0.7090    0.1540    4.2530 hc        1 MQ7      0.068700
     58 H12         3.3520    1.7410    3.8020 ha        1 MQ7      0.120000
     59 H141       -0.3210    2.3020    5.0280 hc        1 MQ7      0.050367
     60 H142       -0.5120    3.5630    3.7410 hc        1 MQ7      0.050367
     61 H143       -0.4260    1.8080    3.2850 hc        1 MQ7      0.050367
     62 H151        1.4960    4.7220    4.5290 hc        1 MQ7      0.047700
     63 H152        3.1040    4.0590    4.0360 hc        1 MQ7      0.047700
     64 H161        2.3460    3.9770    1.6380 hc        1 MQ7      0.052200
     65 H162        0.7350    4.6320    2.1190 hc        1 MQ7      0.052200
     66 H17         2.6580    6.4920    3.2320 ha        1 MQ7      0.123000
     67 H191        1.0470    5.6130   -0.0900 hc        1 MQ7      0.041700
     68 H192        2.7870    5.2780   -0.4600 hc        1 MQ7      0.041700
     69 H193        2.0360    6.8430   -0.9870 hc        1 MQ7      0.041700
     70 H201        2.2390    8.7240    0.5200 hc        1 MQ7      0.046200
     71 H202        3.0680    8.5020    2.1110 hc        1 MQ7      0.046200
     72 H211        5.0700    7.5280    0.9510 hc        1 MQ7      0.050200
     73 H212        4.2460    7.7070   -0.6450 hc        1 MQ7      0.050200
     74 H22         4.1120   10.3360    0.5720 ha        1 MQ7      0.123000
     75 H241        7.9290    9.2800   -1.0470 hc        1 MQ7      0.041367
     76 H242        7.3950    8.2650    0.3580 hc        1 MQ7      0.041367
     77 H243        6.5740    8.0900   -1.2460 hc        1 MQ7      0.041367
     78 H251        6.9060   11.4580   -1.2860 hc        1 MQ7      0.046200
     79 H252        5.6320   11.9750   -0.1120 hc        1 MQ7      0.046200
     80 H261        8.4360   10.8940    0.6530 hc        1 MQ7      0.050200
     81 H262        7.1630   11.4490    1.8070 hc        1 MQ7      0.050200
     82 H27         7.7090   13.5530   -0.2480 ha        1 MQ7      0.123000
     83 H291        9.7800   11.8530    2.4420 hc        1 MQ7      0.041367
     84 H292        8.5600   12.7270    3.4540 hc        1 MQ7      0.041367
     85 H293       10.2140   13.4350    3.2190 hc        1 MQ7      0.041367
     86 H301        9.0980   15.3500    0.3040 hc        1 MQ7      0.046200
     87 H302       10.4990   14.9880    1.3860 hc        1 MQ7      0.046200
     88 H311        7.6830   15.9180    2.3000 hc        1 MQ7      0.050200
     89 H312        9.0600   15.5270    3.3990 hc        1 MQ7      0.050200
     90 H32        10.1320   17.4310    1.4910 ha        1 MQ7      0.123000
     91 H341        7.6440   19.1190    4.5370 hc        1 MQ7      0.041367
     92 H342        7.9680   17.3350    4.6090 hc        1 MQ7      0.041367
     93 H343        6.7920   17.9910    3.4000 hc        1 MQ7      0.041367
     94 H351       10.3510   19.6690    2.1310 hc        1 MQ7      0.045700
     95 H352        9.7110   20.1100    3.7630 hc        1 MQ7      0.045700
     96 H361        8.1420   20.2520    1.0890 hc        1 MQ7      0.050200
     97 H362        7.4740   20.6660    2.7140 hc        1 MQ7      0.050200
     98 H37         9.9160   22.2160    2.4800 ha        1 MQ7      0.123000
     99 H391        6.3090   22.2620    1.2950 hc        1 MQ7      0.041367
    100 H392        6.5800   23.7390    0.2760 hc        1 MQ7      0.041367
    101 H393        7.1840   22.1230   -0.2840 hc        1 MQ7      0.041367
    102 H401        8.1140   25.1140    1.5440 hc        1 MQ7      0.045700
    103 H402        9.7650   24.4820    1.9240 hc        1 MQ7      0.045700
    104 H411       10.1500   23.9800   -0.5060 hc        1 MQ7      0.049700
    105 H412        8.4920   24.5730   -0.9020 hc        1 MQ7      0.049700
    106 H42         9.7530   26.7210    0.6030 ha        1 MQ7      0.122000
    107 H441       12.0400   27.9780   -1.7200 hc        1 MQ7      0.040533
    108 H442       10.8080   28.5140   -0.5010 hc        1 MQ7      0.040533
    109 H443       10.4070   28.5380   -2.2700 hc        1 MQ7      0.040533
    110 H451       11.0030   26.3850   -3.4770 hc        1 MQ7      0.040533
    111 H452        9.6610   25.2940   -2.9290 hc        1 MQ7      0.040533
    112 H453       11.3670   24.9440   -2.4360 hc        1 MQ7      0.040533
@<TRIPOS>BOND
     1    1    2 2   
     2    1    3 1   
     3    1   13 1   
     4    3    4 1   
     5    3    5 2   
     6    4   49 1   
     7    4   50 1   
     8    4   51 1   
     9    5    6 1   
    10    5   14 1   
    11    6    7 2   
    12    6    8 1   
    13    8    9 ar  
    14    8   13 ar  
    15    9   10 ar  
    16    9   52 1   
    17   10   11 ar  
    18   10   53 1   
    19   11   12 ar  
    20   11   54 1   
    21   12   13 ar  
    22   12   55 1   
    23   14   15 1   
    24   14   56 1   
    25   14   57 1   
    26   15   16 2   
    27   15   58 1   
    28   16   17 1   
    29   16   18 1   
    30   17   59 1   
    31   17   60 1   
    32   17   61 1   
    33   18   19 1   
    34   18   62 1   
    35   18   63 1   
    36   19   20 1   
    37   19   64 1   
    38   19   65 1   
    39   20   21 2   
    40   20   66 1   
    41   21   22 1   
    42   21   23 1   
    43   22   67 1   
    44   22   68 1   
    45   22   69 1   
    46   23   24 1   
    47   23   70 1   
    48   23   71 1   
    49   24   25 1   
    50   24   72 1   
    51   24   73 1   
    52   25   26 2   
    53   25   74 1   
    54   26   27 1   
    55   26   28 1   
    56   27   75 1   
    57   27   76 1   
    58   27   77 1   
    59   28   29 1   
    60   28   78 1   
    61   28   79 1   
    62   29   30 1   
    63   29   80 1   
    64   29   81 1   
    65   30   31 2   
    66   30   82 1   
    67   31   32 1   
    68   31   33 1   
    69   32   83 1   
    70   32   84 1   
    71   32   85 1   
    72   33   34 1   
    73   33   86 1   
    74   33   87 1   
    75   34   35 1   
    76   34   88 1   
    77   34   89 1   
    78   35   36 2   
    79   35   90 1   
    80   36   37 1   
    81   36   38 1   
    82   37   91 1   
    83   37   92 1   
    84   37   93 1   
    85   38   39 1   
    86   38   94 1   
    87   38   95 1   
    88   39   40 1   
    89   39   96 1   
    90   39   97 1   
    91   40   41 2   
    92   40   98 1   
    93   41   42 1   
    94   41   43 1   
    95   42   99 1   
    96   42  100 1   
    97   42  101 1   
    98   43   44 1   
    99   43  102 1   
   100   43  103 1   
   101   44   45 1   
   102   44  104 1   
   103   44  105 1   
   104   45   46 2   
   105   45  106 1   
   106   46   47 1   
   107   46   48 1   
   108   47  107 1   
   109   47  108 1   
   110   47  109 1   
   111   48  110 1   
   112   48  111 1   
   113   48  112 1   
@<TRIPOS>SUBSTRUCTURE
     1 MQ7         1 TEMP              0 ****  ****    0 ROOT
