@<TRIPOS>MOLECULE
molecule
   45    48     1     0     0
SMALL
bcc


@<TRIPOS>ATOM
      1 C1           0.0000     0.0000     0.0000 cx         1 MQA      -0.021500
      2 C2           1.5460     0.0000     0.0000 cx         1 MQA       0.026500
      3 C3           1.9440     0.0000     1.4960 c3         1 MQA       0.309800
      4 C5           1.0520     2.1040     4.2530 c          1 MQA       0.569500
      5 C6           0.3960     3.1080     5.0890 cc         1 MQA      -0.163400
      6 C7          -0.8860     3.4570     4.8500 cd         1 MQA       0.050900
      7 C8          -1.6310     2.8490     3.7080 c          1 MQA       0.594500
      8 C9          -1.5360     0.9460     1.7900 c3         1 MQA      -0.017500
      9 C10         -1.8720     1.7850     0.5560 c3         1 MQA       0.172400
     10 C11         -3.4680     3.4090    -0.1600 c          1 MQA       0.575100
     11 O5           2.2050     1.7920     4.4780 o          1 MQA      -0.464100
     12 CM6          1.1510     3.7540     6.2220 c3         1 MQA      -0.042900
     13 O7          -1.4900     4.3930     5.6160 os         1 MQA      -0.327900
     14 C24         -2.5760     3.9580     6.4380 c3         1 MQA       0.137700
     15 O8          -2.7830     3.1740     3.4960 o          1 MQA      -0.563100
     16 C4A          0.3160     1.4600     3.1230 cd         1 MQA       0.196800
     17 C8A         -0.9830     1.8210     2.8970 cc         1 MQA      -0.368400
     18 N4           0.7720     0.5810     2.1780 nh         1 MQA      -0.697400
     19 C9A         -0.3840    -0.0210     1.4880 c3         1 MQA       0.450000
     20 O24         -0.6600    -1.3430     1.9520 os         1 MQA      -0.397600
     21 C25         -0.9160    -1.4270     3.3550 c3         1 MQA       0.119700
     22 N2           0.7720     1.1380    -0.5130 n5         1 MQA      -0.676200
     23 O10         -3.0380     2.6040     0.8310 os         1 MQA      -0.366900
     24 O11         -2.8840     3.4250    -1.2260 o          1 MQA      -0.446000
     25 N12         -4.5460     4.1950     0.0300 nz         1 MQA      -0.649400
     26 H1          -0.3900    -0.7440    -0.6840 h1         1 MQA       0.118700
     27 H2           1.9420    -0.7410    -0.6840 h1         1 MQA       0.118700
     28 H3           2.0990    -1.0170     1.8350 h1         1 MQA       0.088700
     29 H3A          2.8080     0.6360     1.6460 h1         1 MQA       0.088700
     30 H9          -2.4060     0.4010     2.1360 hc         1 MQA       0.093700
     31 H10         -2.0800     1.1300    -0.2810 h1         1 MQA       0.087200
     32 H10A        -1.0310     2.4240     0.3140 h1         1 MQA       0.087200
     33 HM6          2.2150     3.6230     6.0670 hc         1 MQA       0.066033
     34 HM6A         0.8630     3.2910     7.1580 hc         1 MQA       0.066033
     35 HM6B         0.9180     4.8110     6.2540 hc         1 MQA       0.066033
     36 H24         -3.5140     4.1840     5.9460 h1         1 MQA       0.046700
     37 H24A        -2.5350     4.4710     7.3910 h1         1 MQA       0.046700
     38 H24B        -2.5010     2.8900     6.5990 h1         1 MQA       0.046700
     39 H25         -1.7540    -0.7880     3.6070 h1         1 MQA       0.047700
     40 H25A        -0.0390    -1.1050     3.9020 h1         1 MQA       0.047700
     41 H25B        -1.1510    -2.4510     3.6190 h1         1 MQA       0.047700
     42 HN2          0.7720     1.1170    -1.5140 hn         1 MQA       0.365800
     43 HN12        -5.2050     3.7220     0.6170 hn         1 MQA       0.490800
     44 HN1A        -4.2630     5.0490     0.4680 hn         1 MQA       0.490800
     45 H123        -4.9710     4.3980    -0.8530 hn         1 MQA       0.490800
@<TRIPOS>BOND
     1    19     1 1
     2     1    22 1
     3     1     2 1
     4     1    26 1
     5     3     2 1
     6    22     2 1
     7     2    27 1
     8    18     3 1
     9     3    28 1
    10     3    29 1
    11     5     4 1
    12    16     4 1
    13     4    11 2
    14     6     5 2
    15     5    12 1
    16    13     6 1
    17     7     6 1
    18    15     7 2
    19     7    17 1
    20    17     8 1
    21     8     9 1
    22     8    19 1
    23     8    30 1
    24    23     9 1
    25     9    31 1
    26     9    32 1
    27    24    10 2
    28    10    23 1
    29    10    25 1
    30    12    33 1
    31    12    34 1
    32    12    35 1
    33    13    14 1
    34    14    36 1
    35    14    37 1
    36    14    38 1
    37    17    16 2
    38    16    18 1
    39    19    18 1
    40    20    19 1
    41    21    20 1
    42    21    39 1
    43    21    40 1
    44    21    41 1
    45    22    42 1
    46    25    43 1
    47    25    44 1
    48    45    25 1
@<TRIPOS>SUBSTRUCTURE
     1 MQA         1 TEMP              0 ****  ****    0 ROOT
