@<TRIPOS>MOLECULE
MQD
   23    22     1     0     0
SMALL
bcc


@<TRIPOS>ATOM
      1 C1          1.4480   -0.2370   -0.5840 c3        1 MQD     -0.123100
      2 C2          0.0520   -0.0080   -0.0210 c3        1 MQD      0.156800
      3 O2          0.1170    0.1660    1.3910 oh        1 MQD     -0.597800
      4 CM         -0.5670    1.2520   -0.6620 c3        1 MQD      0.097400
      5 C3         -0.8850   -1.1900   -0.2850 c3        1 MQD     -0.071400
      6 C4         -0.4320   -2.4790    0.3950 c3        1 MQD      0.144100
      7 O4         -1.6260   -3.1070    0.8640 oh        1 MQD     -0.603800
      8 C5          0.3030   -3.4080   -0.5550 c3        1 MQD     -0.132100
      9 O6          0.2240    2.3540   -0.2440 oh        1 MQD     -0.612800
     10 H1C1        1.9630   -1.0400   -0.0050 hc        1 MQD      0.047700
     11 H1C2        2.0450    0.7040   -0.5040 hc        1 MQD      0.047700
     12 H1C3        1.3880   -0.5370   -1.6560 hc        1 MQD      0.047700
     13 H2          0.6220    0.9750    1.5450 ho        1 MQD      0.417000
     14 HMC1       -0.5430    1.1690   -1.7800 h1        1 MQD      0.036200
     15 HMC2       -1.6250    1.3770   -0.3110 h1        1 MQD      0.036200
     16 H3C1       -0.9600   -1.3430   -1.3910 hc        1 MQD      0.062700
     17 H3C2       -1.9070   -0.9300    0.1040 hc        1 MQD      0.062700
     18 H4          0.2230   -2.2310    1.2790 h1        1 MQD      0.055700
     19 HA         -1.3530   -3.9030    1.3330 ho        1 MQD      0.398000
     20 H5C1        0.6770   -4.3040   -0.0060 hc        1 MQD      0.041700
     21 H5C2       -0.3810   -3.7520   -1.3670 hc        1 MQD      0.041700
     22 H5C3        1.1720   -2.8790   -1.0140 hc        1 MQD      0.041700
     23 H6         -0.2630    3.1510   -0.4820 ho        1 MQD      0.408000
@<TRIPOS>BOND
     1    1    2 1   
     2    1   10 1   
     3    1   11 1   
     4    1   12 1   
     5    2    3 1   
     6    2    4 1   
     7    2    5 1   
     8    3   13 1   
     9    4    9 1   
    10    4   14 1   
    11    4   15 1   
    12    5    6 1   
    13    5   16 1   
    14    5   17 1   
    15    6    7 1   
    16    6    8 1   
    17    6   18 1   
    18    7   19 1   
    19    8   20 1   
    20    8   21 1   
    21    8   22 1   
    22    9   23 1   
@<TRIPOS>SUBSTRUCTURE
     1 MQD         1 TEMP              0 ****  ****    0 ROOT
