@<TRIPOS>MOLECULE
molecule
   23    22     1     0     0
SMALL
bcc


@<TRIPOS>ATOM
      1 C1           1.5300     0.0000     0.0000 c3         1 MQD      -0.123100
      2 C2           0.0000     0.0000     0.0000 c3         1 MQD       0.163800
      3 O2          -0.4750     0.0000     1.3470 oh         1 MQD      -0.575800
      4 CM          -0.5090     1.2490    -0.7200 c3         1 MQD       0.106400
      5 C3          -0.5100    -1.2480    -0.7200 c3         1 MQD      -0.060400
      6 C4          -0.0000    -2.4980     0.0000 c3         1 MQD       0.150100
      7 O4          -0.4740    -2.4980     1.3470 oh         1 MQD      -0.577800
      8 C5          -0.5100    -3.7470    -0.7210 c3         1 MQD      -0.131100
      9 O6          -0.0330     2.4160    -0.0470 oh         1 MQD      -0.618800
     10 H1C1         1.8910     1.0090     0.1560 hc         1 MQD       0.045367
     11 H1C2         1.8910    -0.3700    -0.9520 hc         1 MQD       0.045367
     12 H1C3         1.8910    -0.6400     0.7960 hc         1 MQD       0.045367
     13 H2          -0.2440     0.8150     1.7620 ho         1 MQD       0.408000
     14 HMC1        -1.5930     1.2500    -0.7200 h1         1 MQD       0.029200
     15 HMC2        -0.1480     1.2500    -1.7420 h1         1 MQD       0.029200
     16 H3C1        -1.5930    -1.2480    -0.7200 hc         1 MQD       0.057200
     17 H3C2        -0.1490    -1.2480    -1.7420 hc         1 MQD       0.057200
     18 H4           1.0830    -2.4980    -0.0010 h1         1 MQD       0.029700
     19 HA          -0.1060    -3.2320     1.8100 ho         1 MQD       0.392000
     20 H5C1        -1.5910    -3.7790    -0.6670 hc         1 MQD       0.040033
     21 H5C2        -0.0980    -4.6300    -0.2490 hc         1 MQD       0.040033
     22 H5C3        -0.2020    -3.7150    -1.7590 hc         1 MQD       0.040033
     23 H6          -0.4140     3.1830    -0.4400 ho         1 MQD       0.407000
@<TRIPOS>BOND
     1     1     2 1
     2     1    10 1
     3     1    11 1
     4     1    12 1
     5     2     3 1
     6     2     4 1
     7     2     5 1
     8     3    13 1
     9     4     9 1
    10     4    14 1
    11     4    15 1
    12     5     6 1
    13     5    16 1
    14     5    17 1
    15     6     7 1
    16     6     8 1
    17     6    18 1
    18     7    19 1
    19     8    20 1
    20     8    21 1
    21     8    22 1
    22     9    23 1
@<TRIPOS>SUBSTRUCTURE
     1 MQD         1 TEMP              0 ****  ****    0 ROOT
