@<TRIPOS>MOLECULE
molecule
   31    31     1     0     0
SMALL
bcc


@<TRIPOS>ATOM
      1 C2           0.0000     0.0000     0.0000 c3         1 MQG       0.209500
      2 C3           1.5320     0.0000     0.0000 c3         1 MQG       0.137100
      3 C4           2.0320     0.0000     1.4480 c3         1 MQG       0.096100
      4 C5           1.4520    -1.2140     2.1780 c3         1 MQG       0.158100
      5 C6           1.8980    -1.1900     3.6420 c3         1 MQG       0.147400
      6 C8          -2.4820     0.6900    -3.2930 c3         1 MQG      -0.294300
      7 O1          -1.9290    -1.1920     0.8390 oh         1 MQG      -0.483800
      8 C1          -0.5020    -1.2140     0.7870 c3         1 MQG       0.303900
      9 O3           2.0090     1.1680    -0.6710 oh         1 MQG      -0.575800
     10 O71         -2.9500     0.2660    -0.6640 o          1 MQG      -0.805500
     11 O72         -1.6350     2.3530    -1.1990 o          1 MQG      -0.805500
     12 N2          -0.4900    -0.0750    -1.3830 n7         1 MQG      -0.908300
     13 O4           3.4590    -0.0730     1.4600 oh         1 MQG      -0.619800
     14 O5           0.0250    -1.1700     2.1150 os         1 MQG      -0.445600
     15 O6           1.4550    -2.3810     4.2950 oh         1 MQG      -0.601800
     16 H1          -0.3600     0.9080     0.4690 h1         1 MQG       0.130700
     17 H2           1.8930    -0.8870    -0.5060 h1         1 MQG       0.026700
     18 H3           1.7060     0.9070     1.9420 h1         1 MQG       0.064700
     19 H4           1.8050    -2.1220     1.7030 h1         1 MQG       0.046700
     20 H5           1.4700    -0.3260     4.1350 h1         1 MQG       0.029200
     21 H6           2.9790    -1.1340     3.6890 h1         1 MQG       0.029200
     22 H7          -1.7020     1.0410    -3.9580 hc         1 MQG       0.037367
     23 H8          -2.7170    -0.3420    -3.5250 hc         1 MQG       0.037367
     24 H9          -3.3680     1.3000    -3.4240 hc         1 MQG       0.037367
     25 H10         -2.2400    -1.9620     1.2850 ho         1 MQG       0.379000
     26 H11         -0.1680    -2.1210     0.2980 h2         1 MQG      -0.003300
     27 H12          2.5010     0.9140    -1.4340 ho         1 MQG       0.395000
     28 H14         -0.3450    -0.9050    -1.9210 hn         1 MQG       0.370800
     29 H15          3.8130     0.7410     1.7790 ho         1 MQG       0.402000
     30 H16          1.8300    -2.4240     5.1590 ho         1 MQG       0.389000
     31 P7          -1.9110     0.8100    -1.5670 p5         1 MQG       1.115500
@<TRIPOS>BOND
     1    15     5 1
     2     5     4 1
     3    13     3 1
     4     3     4 1
     5     3     2 1
     6     4    14 1
     7     9     2 1
     8    14     8 1
     9     2     1 1
    10     1     8 1
    11     1    12 1
    12     8     7 1
    13    10    31 1
    14    11    31 1
    15    12    31 1
    16    31     6 1
    17     1    16 1
    18     2    17 1
    19     3    18 1
    20     4    19 1
    21     5    20 1
    22     5    21 1
    23     6    22 1
    24     6    23 1
    25     6    24 1
    26     7    25 1
    27     8    26 1
    28     9    27 1
    29    12    28 1
    30    13    29 1
    31    15    30 1
@<TRIPOS>SUBSTRUCTURE
     1 MQG         1 TEMP              0 ****  ****    0 ROOT
