@<TRIPOS>MOLECULE
MQG
   31    31     1     0     0
SMALL
bcc


@<TRIPOS>ATOM
      1 C2           0.0000     0.0000     0.0000 c3         1 MQG       0.148500
      2 C3           1.5320     0.0000     0.0000 c3         1 MQG       0.168100
      3 C4           2.0320     0.0000     1.4480 c3         1 MQG       0.132100
      4 C5           1.4520    -1.2140     2.1780 c3         1 MQG       0.178100
      5 C6           1.8980    -1.1900     3.6420 c3         1 MQG       0.219400
      6 C8          -2.4820     0.6900    -3.2930 c3         1 MQG      -0.026300
      7 O1          -1.9290    -1.1920     0.8390 oh         1 MQG      -0.465800
      8 C1          -0.5020    -1.2140     0.7870 c3         1 MQG       0.355900
      9 O3           2.0090     1.1680    -0.6710 oh         1 MQG      -0.559800
     10 O71         -2.9500     0.2660    -0.6640 o          1 MQG      -0.622000
     11 O72         -1.6350     2.3530    -1.1990 o          1 MQG      -0.622000
     12 N2          -0.4900    -0.0750    -1.3830 n7         1 MQG      -0.579300
     13 O4           3.4590    -0.0730     1.4600 oh         1 MQG      -0.600800
     14 O5           0.0250    -1.1700     2.1150 os         1 MQG      -0.433600
     15 O6           1.4550    -2.3810     4.2950 oh         1 MQG      -0.583800
     16 H1          -0.3600     0.9080     0.4690 h1         1 MQG       0.097700
     17 H2           1.8930    -0.8870    -0.5060 h1         1 MQG      -0.007300
     18 H3           1.7060     0.9070     1.9420 h1         1 MQG       0.028700
     19 H4           1.8050    -2.1220     1.7030 h1         1 MQG       0.013700
     20 H5           1.4700    -0.3260     4.1350 h1         1 MQG      -0.008800
     21 H6           2.9790    -1.1340     3.6890 h1         1 MQG      -0.008800
     22 H7          -1.7020     1.0410    -3.9580 hc         1 MQG       0.003033
     23 H8          -2.7170    -0.3420    -3.5250 hc         1 MQG       0.003033
     24 H9          -3.3680     1.3000    -3.4240 hc         1 MQG       0.003033
     25 H10         -2.2400    -1.9620     1.2850 ho         1 MQG       0.350000
     26 H11         -0.1680    -2.1210     0.2980 h2         1 MQG      -0.037300
     27 H12          2.5010     0.9140    -1.4340 ho         1 MQG       0.377000
     28 H14         -0.3450    -0.9050    -1.9210 hn         1 MQG       0.255800
     29 H15          3.8130     0.7410     1.7790 ho         1 MQG       0.388000
     30 H16          1.8300    -2.4240     5.1590 ho         1 MQG       0.374000
     31 P7          -1.9110     0.8100    -1.5670 p5         1 MQG       0.459500
@<TRIPOS>BOND
     1     1     2 1   
     2     1     8 1   
     3     1    12 1   
     4     1    16 1   
     5     2     3 1   
     6     2     9 1   
     7     2    17 1   
     8     3     4 1   
     9     3    13 1   
    10     3    18 1   
    11     4     5 1   
    12     4    14 1   
    13     4    19 1   
    14     5    15 1   
    15     5    20 1   
    16     5    21 1   
    17     6    22 1   
    18     6    23 1   
    19     6    24 1   
    20     6    31 1   
    21     7     8 1   
    22     7    25 1   
    23     8    14 1   
    24     8    26 1   
    25     9    27 1   
    26    10    31 1   
    27    11    31 1   
    28    12    28 1   
    29    12    31 1   
    30    13    29 1   
    31    15    30 1   
@<TRIPOS>SUBSTRUCTURE
     1 MQG         1 TEMP              0 ****  ****    0 ROOT
