@<TRIPOS>MOLECULE
MQI
   23    22     1     0     0
SMALL
bcc


@<TRIPOS>ATOM
      1 S          -0.0690   -0.0850    0.0610 s4        1 MQI      1.648000
      2 O1          0.2080   -0.5790    1.3990 o         1 MQI     -0.798000
      3 O2         -1.6080    0.5430    0.4560 oh        1 MQI     -0.666000
      4 C1         -3.7840   -1.1150   -0.4980 c1        1 MQI      0.297000
      5 C2         -4.9580   -0.4660   -0.2710 c2        1 MQI     -0.296000
      6 C3         -2.6430   -3.9030   -2.6390 c2        1 MQI     -0.056000
      7 C4         -1.5630   -3.1880   -2.2580 c2        1 MQI     -0.127000
      8 C5         -0.2520   -3.5030   -2.8130 c2        1 MQI     -0.056000
      9 C6          0.8610   -2.8180   -2.4530 c2        1 MQI     -0.168000
     10 C7          0.7900   -1.7290   -1.5380 c1        1 MQI     -0.083000
     11 C8         -0.4610   -1.4110   -0.9430 c2        1 MQI     -0.686000
     12 C9         -1.6160   -2.0880   -1.2690 c2        1 MQI      0.298000
     13 N          -2.8250   -1.8210   -0.6710 n2        1 MQI     -0.230000
     14 H1         -4.8990    0.3580    0.4670 ha        1 MQI      0.186000
     15 H3         -3.6620   -3.7330   -2.2600 ha        1 MQI      0.140500
     16 H5         -2.5540   -4.7230   -3.3700 ha        1 MQI      0.140500
     17 H6         -0.2180   -4.3290   -3.5430 ha        1 MQI      0.138000
     18 H7          1.8500   -3.0730   -2.8680 ha        1 MQI      0.159000
     19 H101       -6.2460   -1.5930   -1.5770 ha        1 MQI      0.040000
     20 H102       -6.4580   -3.6500   -2.6430 ha        1 MQI      0.001000
     21 H103       -5.7950   -3.7470   -2.7390 ha        1 MQI      0.001000
     22 HS1        -1.8140    0.4390    1.3870 ho        1 MQI      0.246000
     23 C10        -6.1550   -0.7440   -0.8860 c1        1 MQI     -0.130000
@<TRIPOS>BOND
     1    1    2 1   
     2    1    3 1   
     3    1   11 1   
     4    3   22 1   
     5    4    5 1   
     6    4   13 1   
     7    5   14 1   
     8    5   23 1   
     9    6    7 1   
    10    6   15 1   
    11    6   16 1   
    12    7    8 1   
    13    7   12 1   
    14    8    9 1   
    15    8   17 1   
    16    9   10 1   
    17    9   18 1   
    18   10   11 1   
    19   11   12 1   
    20   12   13 1   
    21   19   23 1   
    22   20   21 1   
@<TRIPOS>SUBSTRUCTURE
     1 MQI         1 TEMP              0 ****  ****    0 ROOT
