@<TRIPOS>MOLECULE
molecule
   23    24     1     0     0
SMALL
bcc


@<TRIPOS>ATOM
      1 S            0.0000     0.0000     0.0000 sy         1 MQI       1.132300
      2 O1           1.4480     0.0000     0.0000 o          1 MQI      -0.596800
      3 O2          -0.7780     0.0000     1.2210 o          1 MQI      -0.596800
      4 C1          -4.0980    -1.2580    -0.6080 ca         1 MQI       0.452200
      5 C2          -4.5440    -2.3390    -1.3420 ca         1 MQI      -0.208600
      6 C3          -3.5890    -3.1270    -1.9670 ca         1 MQI      -0.066000
      7 C4          -2.2280    -2.8170    -1.8420 ca         1 MQI      -0.171300
      8 C5          -1.2360    -3.5960    -2.4620 ca         1 MQI      -0.040000
      9 C6           0.1090    -3.2660    -2.3220 ca         1 MQI      -0.164000
     10 C7           0.4670    -2.1590    -1.5620 ca         1 MQI       0.008000
     11 C8          -0.5180    -1.3850    -0.9460 ca         1 MQI      -0.346800
     12 C9          -1.8700    -1.6920    -1.0690 ca         1 MQI       0.481600
     13 N           -2.7960    -0.9250    -0.4620 nb         1 MQI      -0.673000
     14 H1          -4.8390    -0.6380    -0.1170 h4         1 MQI       0.028100
     15 H3          -3.8960    -3.9840    -2.5540 ha         1 MQI       0.139000
     16 H5          -1.5200    -4.4580    -3.0540 ha         1 MQI       0.138000
     17 H6           0.8710    -3.8680    -2.8010 ha         1 MQI       0.145000
     18 H7           1.5120    -1.8960    -1.4480 ha         1 MQI       0.168000
     19 H101        -6.2300    -3.5110    -0.8510 hc         1 MQI       0.049700
     20 H102        -6.2370    -2.8540    -2.4930 hc         1 MQI       0.049700
     21 H103        -6.5720    -1.7960    -1.1160 hc         1 MQI       0.049700
     22 HS1         -0.3570     1.1050    -0.6430 hs         1 MQI       0.064800
     23 C10         -5.9940    -2.6460    -1.4580 c3         1 MQI      -0.043800
@<TRIPOS>BOND
     1     1     2 2
     2     1     3 2
     3     1    11 1
     4     4     5 ar
     5     4    13 ar
     6     4    14 1
     7     5     6 ar
     8     5    23 1
     9     6     7 ar
    10     6    15 1
    11     7     8 ar
    12     7    12 ar
    13     8     9 ar
    14     8    16 1
    15     9    10 ar
    16     9    17 1
    17    10    11 ar
    18    10    18 1
    19    11    12 ar
    20    12    13 ar
    21    23    19 1
    22    23    20 1
    23    23    21 1
    24    22     1 1
@<TRIPOS>SUBSTRUCTURE
     1 MQI         1 TEMP              0 ****  ****    0 ROOT
