@<TRIPOS>MOLECULE
MQN
   22    23     1     0     0
SMALL
bcc


@<TRIPOS>ATOM
      1 CAA          0.0000     0.0000     0.0000 c3         1 MQN      -0.043400
      2 CAI          1.5070     0.0000     0.0000 ca         1 MQN       0.379600
      3 NAH          2.1450     0.0000     1.1460 nb         1 MQN      -0.566000
      4 CAL          3.4800     0.0000     1.1990 ca         1 MQN       0.374600
      5 CAF          4.1550     0.0000     2.4330 ca         1 MQN      -0.139300
      6 CAD          5.5130     0.0000     2.4650 ca         1 MQN      -0.104000
      7 CAJ          6.2610     0.0000     1.2820 ca         1 MQN       0.031600
      8 NAB          7.6560     0.0000     1.3460 nv         1 MQN      -0.563200
      9 CAG          5.6340     0.0000     0.0550 ca         1 MQN      -0.097000
     10 CAK          4.2320    -0.0000    -0.0020 ca         1 MQN      -0.149300
     11 CAE          3.5510    -0.0000    -1.2340 ca         1 MQN      -0.054000
     12 CAC          2.1850    -0.0060    -1.2160 ca         1 MQN      -0.218300
     13 H1          -0.3610    -0.9130    -0.4590 hc         1 MQN       0.014033
     14 H2          -0.3610     0.0590     1.0200 hc         1 MQN       0.014033
     15 H3          -0.3610     0.8530    -0.5610 hc         1 MQN       0.014033
     16 H4           3.5910     0.0000     3.3580 ha         1 MQN       0.116000
     17 H5           6.0240     0.0000     3.4200 ha         1 MQN       0.108000
     18 H6           8.1560     0.8670     1.3630 hn         1 MQN       0.273800
     19 H7           8.1570    -0.8670     1.3640 hn         1 MQN       0.273800
     20 H8           6.2180    -0.0000    -0.8570 ha         1 MQN       0.112000
     21 H9           4.0960    -0.0050    -2.1710 ha         1 MQN       0.110000
     22 H10          1.6310    -0.0660    -2.1450 ha         1 MQN       0.113000
@<TRIPOS>BOND
     1     1     2 1   
     2     1    13 1   
     3     1    14 1   
     4     1    15 1   
     5     2     3 ar  
     6     2    12 ar  
     7     3     4 ar  
     8     4     5 ar  
     9     4    10 ar  
    10     5     6 ar  
    11     5    16 1   
    12     6     7 ar  
    13     6    17 1   
    14     7     8 1   
    15     7     9 ar  
    16     8    18 1   
    17     8    19 1   
    18     9    10 ar  
    19     9    20 1   
    20    10    11 ar  
    21    11    12 ar  
    22    11    21 1   
    23    12    22 1   
@<TRIPOS>SUBSTRUCTURE
     1 MQN         1 TEMP              0 ****  ****    0 ROOT
