@<TRIPOS>MOLECULE
MQO
   25    26     1     0     0
SMALL
bcc


@<TRIPOS>ATOM
      1 CAA          0.0000     0.0000     0.0000 c3         1 MQO       0.252700
      2 CAB          1.0820     0.0070     4.8670 c3         1 MQO       0.067200
      3 CAF          1.9180     0.0060     3.6130 ca         1 MQO      -0.092300
      4 CAG          3.2820     0.0000     3.7100 ca         1 MQO      -0.046000
      5 CAI          6.2410    -0.0080     1.3880 cc         1 MQO      -0.327200
      6 CAJ          1.2980     0.0040     2.3730 ca         1 MQO      -0.157000
      7 CAK          5.5310    -0.0070     2.6110 c          1 MQO       0.637900
      8 CAL          2.0470     0.0030     1.2110 ca         1 MQO       0.095100
      9 CAM          5.5720     0.0000     0.2160 cd         1 MQO      -0.037000
     10 CAN          4.0580    -0.0010     2.5510 ca         1 MQO      -0.164600
     11 CAO          3.4410     0.0030     1.2890 ca         1 MQO      -0.029400
     12 NAH          4.2190     0.0000     0.1510 na         1 MQO      -0.077400
     13 OAE          1.4290     0.0000     0.0000 os         1 MQO      -0.324900
     14 HA2         -0.3610     0.8850     0.5100 h1         1 MQO      -0.000633
     15 HA3         -0.3610    -0.8840     0.5120 h1         1 MQO      -0.000633
     16 HA1         -0.3610    -0.0010    -1.0210 h1         1 MQO      -0.000633
     17 HB2          1.0800     1.0000     5.2990 hc         1 MQO       0.007700
     18 HB3          0.0670    -0.2840     4.6240 hc         1 MQO       0.007700
     19 HB1          1.4980    -0.6960     5.5790 hc         1 MQO       0.007700
     20 HAG          3.7560    -0.0970     4.6790 ha         1 MQO       0.131000
     21 HAI          7.3240    -0.0080     1.3910 ha         1 MQO       0.137000
     22 HAJ          0.2160     0.0040     2.3140 ha         1 MQO       0.123000
     23 HAM          6.1380    -0.0010    -0.7070 h4         1 MQO       0.117000
     24 HAH          3.7730     0.0070    -0.7450 hn         1 MQO       0.281800
     25 OAC          6.1180    -0.0160     3.6800 o          1 MQO      -0.607100
@<TRIPOS>BOND
     1     1    13 1   
     2     1    14 1   
     3     1    15 1   
     4     1    16 1   
     5     2     3 1   
     6     2    17 1   
     7     2    18 1   
     8     2    19 1   
     9     3     4 ar  
    10     3     6 ar  
    11     4    10 ar  
    12     4    20 1   
    13     5     7 1   
    14     5     9 2   
    15     5    21 1   
    16     6     8 ar  
    17     6    22 1   
    18     7    10 1   
    19     7    25 2   
    20     8    11 ar  
    21     8    13 1   
    22     9    12 1   
    23     9    23 1   
    24    10    11 ar  
    25    11    12 1   
    26    12    24 1   
@<TRIPOS>SUBSTRUCTURE
     1 MQO         1 TEMP              0 ****  ****    0 ROOT
