@<TRIPOS>MOLECULE
molecule
   25    26     1     0     0
SMALL
bcc


@<TRIPOS>ATOM
      1 CAA          0.0000     0.0000     0.0000 c3         1 MQO       0.133700
      2 CAB          1.0820     0.0070     4.8670 c3         1 MQO      -0.044800
      3 CAF          1.9180     0.0060     3.6130 ca         1 MQO      -0.090300
      4 CAG          3.2820     0.0000     3.7100 ca         1 MQO      -0.075000
      5 CAI          6.2410    -0.0080     1.3880 cc         1 MQO      -0.347200
      6 CAJ          1.2980     0.0040     2.3730 ca         1 MQO      -0.169000
      7 CAK          5.5310    -0.0070     2.6110 c          1 MQO       0.587900
      8 CAL          2.0470     0.0030     1.2110 ca         1 MQO       0.082100
      9 CAM          5.5720     0.0000     0.2160 cd         1 MQO       0.115000
     10 CAN          4.0580    -0.0010     2.5510 ca         1 MQO      -0.169600
     11 CAO          3.4410     0.0030     1.2890 ca         1 MQO       0.151600
     12 NAH          4.2190     0.0000     0.1510 na         1 MQO      -0.594400
     13 OAE          1.4290     0.0000     0.0000 os         1 MQO      -0.346900
     14 HA2         -0.3610     0.8850     0.5100 h1         1 MQO       0.043367
     15 HA3         -0.3610    -0.8840     0.5120 h1         1 MQO       0.043367
     16 HA1         -0.3610    -0.0010    -1.0210 h1         1 MQO       0.043367
     17 HB2          1.0800     1.0000     5.2990 hc         1 MQO       0.044367
     18 HB3          0.0670    -0.2840     4.6240 hc         1 MQO       0.044367
     19 HB1          1.4980    -0.6960     5.5790 hc         1 MQO       0.044367
     20 HAG          3.7560    -0.0970     4.6790 ha         1 MQO       0.160000
     21 HAI          7.3240    -0.0080     1.3910 ha         1 MQO       0.162000
     22 HAJ          0.2160     0.0040     2.3140 ha         1 MQO       0.139000
     23 HAM          6.1380    -0.0010    -0.7070 h4         1 MQO       0.148000
     24 HAH          3.7730     0.0070    -0.7450 hn         1 MQO       0.460800
     25 OAC          6.1180    -0.0160     3.6800 o          1 MQO      -0.568100
@<TRIPOS>BOND
     1     1    13 1
     2     9    12 1
     3     9     5 2
     4    12    11 1
     5    13     8 1
     6     5     7 1
     7    11     8 ar
     8    11    10 ar
     9     8     6 ar
    10     7    10 1
    11     7    25 2
    12    10     4 ar
    13     6     3 ar
    14     4     3 ar
    15     3     2 1
    16     1    14 1
    17     1    15 1
    18     1    16 1
    19     2    17 1
    20     2    18 1
    21     2    19 1
    22     4    20 1
    23     5    21 1
    24     6    22 1
    25     9    23 1
    26    12    24 1
@<TRIPOS>SUBSTRUCTURE
     1 MQO         1 TEMP              0 ****  ****    0 ROOT
