@<TRIPOS>MOLECULE
MQQ
   83    86     1     0     0
SMALL
bcc


@<TRIPOS>ATOM
      1 N3           0.0000     0.0000     0.0000 n          1 MQQ      -0.180800
      2 O6           1.3820    -1.1110     2.1460 os         1 MQQ      -0.389600
      3 C2           1.4730     0.0000     0.0000 c3         1 MQQ       0.022000
      4 C3           1.9510     0.0000     1.4560 c3         1 MQQ       0.186400
      5 C4          -0.6790    -0.9530     0.8950 c3         1 MQQ       0.022000
      6 C5          -0.0190    -0.8750     2.2720 c3         1 MQQ       0.186400
      7 C11         -0.7000     0.8440    -0.7840 c          1 MQQ       0.614100
      8 O1          -1.9110     0.9030    -0.6860 o          1 MQQ      -0.674100
      9 N1          -0.0570     1.6220    -1.6780 ns         1 MQQ      -0.221900
     10 CA          -0.8030     2.6200    -2.4490 c3         1 MQQ      -0.015300
     11 CB          -1.8840     1.9220    -3.2750 c3         1 MQQ      -0.039400
     12 CG          -1.2250     1.0170    -4.3170 c3         1 MQQ       0.001400
     13 SD          -2.5060     0.1900    -5.2990 sy         1 MQQ       0.877300
     14 CE          -1.5770    -0.7940    -6.4270 ca         1 MQQ      -0.163500
     15 C           -1.4470     3.6040    -1.5060 c          1 MQQ       0.557100
     16 O           -1.6170     3.3070    -0.3430 o          1 MQQ      -0.602100
     17 O2          -3.2050    -0.7840    -4.5340 o          1 MQQ      -0.580300
     18 O3          -3.1790     1.1010    -6.1560 o          1 MQQ      -0.580300
     19 CD1         -1.2050    -0.2750    -7.6520 ca         1 MQQ       0.002500
     20 CD2         -1.2250    -2.0870    -6.0880 ca         1 MQQ       0.002500
     21 CX1         -0.4720    -1.0450    -8.5350 ca         1 MQQ      -0.134000
     22 CX2         -0.4950    -2.8590    -6.9730 ca         1 MQQ      -0.134000
     23 CZ          -0.1190    -2.3380    -8.1970 ca         1 MQQ      -0.049000
     24 CM          -4.4910     5.9820    -2.4670 c3         1 MQQ      -0.005600
     25 N2          -1.8310     4.8150    -1.9550 ns         1 MQQ      -0.200900
     26 CA1         -2.4520     5.7740    -1.0380 c3         1 MQQ       0.015700
     27 CB3         -1.3620     6.5540    -0.3010 c3         1 MQQ      -0.038400
     28 CG1          0.5090     6.3680     1.3170 ca         1 MQQ      -0.086300
     29 CDB          0.2420     6.9280     2.5510 ca         1 MQQ      -0.100000
     30 CDC          1.7620     6.5080     0.7500 ca         1 MQQ      -0.100000
     31 CE1          1.2270     7.6350     3.2180 ca         1 MQQ      -0.098500
     32 CE2          2.7460     7.2170     1.4140 ca         1 MQQ      -0.098500
     33 CZ1          2.4790     7.7780     2.6480 ca         1 MQQ      -0.106000
     34 CB2         -0.5650     5.6000     0.5900 c3         1 MQQ       0.013900
     35 CT          -3.3270     6.7460    -1.8310 c3         1 MQQ      -0.009400
     36 C1          -8.7810     4.4660    -5.0790 ca         1 MQQ      -0.046000
     37 C21         -7.6200     4.6760    -5.8010 ca         1 MQQ      -0.130500
     38 C31         -6.6290     5.4940    -5.2930 ca         1 MQQ       0.004000
     39 C41         -6.7940     6.0960    -4.0590 ca         1 MQQ      -0.163500
     40 C51         -7.9550     5.8870    -3.3380 ca         1 MQQ       0.004000
     41 C6          -8.9480     5.0720    -3.8480 ca         1 MQQ      -0.130500
     42 S1          -5.5280     7.1340    -3.4090 sy         1 MQQ       0.875300
     43 O11         -6.2480     8.0100    -2.5520 o          1 MQQ      -0.585300
     44 O21         -4.8680     7.5970    -4.5790 o          1 MQQ      -0.585300
     45 H21A         1.8370    -0.8880    -0.5030 h1         1 MQQ       0.032200
     46 H22          1.8370     0.8880    -0.5030 h1         1 MQQ       0.032200
     47 H31A         3.0310    -0.0770     1.4790 h1         1 MQQ       0.017700
     48 H32          1.6390     0.9190     1.9360 h1         1 MQQ       0.017700
     49 H41         -1.7270    -0.6890     0.9790 h1         1 MQQ       0.032200
     50 H42         -0.5800    -1.9570     0.5000 h1         1 MQQ       0.032200
     51 H51A        -0.1800     0.1100     2.6920 h1         1 MQQ       0.017700
     52 H52         -0.4530    -1.6250     2.9210 h1         1 MQQ       0.017700
     53 HN1          0.9210     1.4930    -1.8420 hn         1 MQQ       0.175500
     54 HA          -0.1250     3.1450    -3.1110 h1         1 MQQ       0.028700
     55 HB1         -2.5090     1.3250    -2.6220 hc         1 MQQ       0.061200
     56 HB2         -2.4920     2.6660    -3.7760 hc         1 MQQ       0.061200
     57 HG1         -0.6000     1.6140    -4.9700 h1         1 MQQ       0.063700
     58 HG2         -0.6170     0.2730    -3.8170 h1         1 MQQ       0.063700
     59 HD1         -1.4820     0.7380    -7.9180 ha         1 MQQ       0.123000
     60 HD2         -1.5200    -2.4950    -5.1290 ha         1 MQQ       0.123000
     61 HX1         -0.1780    -0.6370    -9.4950 ha         1 MQQ       0.108500
     62 HX2         -0.2190    -3.8730    -6.7070 ha         1 MQQ       0.108500
     63 HZ           0.4550    -2.9420    -8.8890 ha         1 MQQ       0.102000
     64 HM1         -4.1020     5.2200    -3.1320 h1         1 MQQ       0.071200
     65 HM2         -5.0840     5.5150    -1.6900 h1         1 MQQ       0.071200
     66 HN2         -1.6600     5.0730    -2.9070 hn         1 MQQ       0.175500
     67 HA1         -3.0640     5.2420    -0.3200 h1         1 MQQ       0.065700
     68 HB31        -0.6980     7.0150    -1.0210 hc         1 MQQ       0.022200
     69 HB32        -1.8200     7.3220     0.3110 hc         1 MQQ       0.022200
     70 HCD1        -0.7390     6.8170     2.9960 ha         1 MQQ       0.103000
     71 HCD2         1.9700     6.0680    -0.2180 ha         1 MQQ       0.103000
     72 HE1          1.0180     8.0740     4.1850 ha         1 MQQ       0.101000
     73 HE2          3.7270     7.3280     0.9690 ha         1 MQQ       0.101000
     74 HZ1          3.2500     8.3330     3.1690 ha         1 MQQ       0.102000
     75 HB21        -0.1080     4.8320    -0.0220 hc         1 MQQ       0.036700
     76 HB22        -1.2290     5.1390     1.3110 hc         1 MQQ       0.036700
     77 HT1         -2.7350     7.2140    -2.6080 hc         1 MQQ       0.035200
     78 HT2         -3.7160     7.5070    -1.1660 hc         1 MQQ       0.035200
     79 H21         -7.4890     4.2030    -6.7660 ha         1 MQQ       0.109500
     80 H31         -5.7200     5.6580    -5.8580 ha         1 MQQ       0.122000
     81 H51         -8.0860     6.3610    -2.3720 ha         1 MQQ       0.122000
     82 H6          -9.8580     4.9080    -3.2830 ha         1 MQQ       0.109500
     83 H1          -9.5590     3.8260    -5.4780 ha         1 MQQ       0.102000
@<TRIPOS>BOND
     1     1     3 1   
     2     1     5 1   
     3     1     7 1   
     4     2     4 1   
     5     2     6 1   
     6     3     4 1   
     7     3    45 1   
     8     3    46 1   
     9     4    47 1   
    10     4    48 1   
    11     5     6 1   
    12     5    49 1   
    13     5    50 1   
    14     6    51 1   
    15     6    52 1   
    16     7     8 2   
    17     7     9 1   
    18     9    10 1   
    19     9    53 1   
    20    10    11 1   
    21    10    15 1   
    22    10    54 1   
    23    11    12 1   
    24    11    55 1   
    25    11    56 1   
    26    12    13 1   
    27    12    57 1   
    28    12    58 1   
    29    13    14 1   
    30    13    17 2   
    31    13    18 2   
    32    14    19 ar  
    33    14    20 ar  
    34    15    16 2   
    35    15    25 1   
    36    19    21 ar  
    37    19    59 1   
    38    20    22 ar  
    39    20    60 1   
    40    21    23 ar  
    41    21    61 1   
    42    22    23 ar  
    43    22    62 1   
    44    23    63 1   
    45    24    35 1   
    46    24    42 1   
    47    24    64 1   
    48    24    65 1   
    49    25    26 1   
    50    25    66 1   
    51    26    27 1   
    52    26    35 1   
    53    26    67 1   
    54    27    34 1   
    55    27    68 1   
    56    27    69 1   
    57    28    29 ar  
    58    28    30 ar  
    59    28    34 1   
    60    29    31 ar  
    61    29    70 1   
    62    30    32 ar  
    63    30    71 1   
    64    31    33 ar  
    65    31    72 1   
    66    32    33 ar  
    67    32    73 1   
    68    33    74 1   
    69    34    75 1   
    70    34    76 1   
    71    35    77 1   
    72    35    78 1   
    73    36    37 ar  
    74    36    41 ar  
    75    36    83 1   
    76    37    38 ar  
    77    37    79 1   
    78    38    39 ar  
    79    38    80 1   
    80    39    40 ar  
    81    39    42 1   
    82    40    41 ar  
    83    40    81 1   
    84    41    82 1   
    85    42    43 2   
    86    42    44 2   
@<TRIPOS>SUBSTRUCTURE
     1 MQQ         1 TEMP              0 ****  ****    0 ROOT
