@<TRIPOS>MOLECULE
MQR
   36    38     1     0     0
SMALL
bcc


@<TRIPOS>ATOM
      1 O1           0.0000     0.0000     0.0000 o          1 MQR      -0.641100
      2 C1           2.9500     1.0440    -1.4260 ca         1 MQR      -0.124300
      3 C2           1.9530     0.0940    -1.2770 ca         1 MQR      -0.124600
      4 C3           1.6390    -0.7820    -2.3310 ca         1 MQR      -0.049000
      5 C4           2.3040    -0.7150    -3.5120 ca         1 MQR      -0.139300
      6 C5           3.6450     1.1310    -2.6430 ca         1 MQR       0.252300
      7 C6           3.3220     0.2390    -3.6970 ca         1 MQR       0.270300
      8 N1           3.9870     0.3180    -4.8550 nb         1 MQR      -0.534000
      9 C7           4.9340     1.2150    -5.0030 ca         1 MQR       0.293900
     10 C8           5.2560     2.0920    -3.9630 ca         1 MQR       0.288900
     11 N2           4.6100     2.0420    -2.8210 nb         1 MQR      -0.535000
     12 C9           1.2150     0.0000     0.0000 c          1 MQR       0.605700
     13 C10          3.9080    -1.2220     1.9280 c3         1 MQR      -0.038400
     14 C11          3.3560     0.0000     1.1870 c3         1 MQR       0.015000
     15 N3           1.8890    -0.0830     1.1640 n          1 MQR      -0.141800
     16 C12          1.1710    -0.2600     2.4340 c3         1 MQR       0.051000
     17 C13          1.7480    -1.4790     3.1610 c3         1 MQR      -0.070700
     18 C14          3.2610    -1.3090     3.3120 c3         1 MQR      -0.026400
     19 C15          1.1060    -1.5990     4.5440 c3         1 MQR       0.011900
     20 H2           0.8560    -1.5190    -2.1990 ha         1 MQR       0.121000
     21 H3           2.0500    -1.3960    -4.3150 ha         1 MQR       0.123000
     22 H4           5.4770     1.2710    -5.9380 h4         1 MQR      -0.010900
     23 H5           6.0400     2.8260    -4.1040 h4         1 MQR      -0.010900
     24 H6           3.6780    -2.1190     1.3660 hc         1 MQR       0.021700
     25 H7           4.9810    -1.1230     2.0380 hc         1 MQR       0.021700
     26 H8           3.7340     0.0090     0.1720 h1         1 MQR       0.036700
     27 H9           3.6590     0.9040     1.7020 h1         1 MQR       0.036700
     28 H10          0.1180    -0.4210     2.2360 h1         1 MQR       0.038200
     29 H11          1.2990     0.6230     3.0490 h1         1 MQR       0.038200
     30 H12          1.5420    -2.3720     2.5830 hc         1 MQR       0.035700
     31 H13          3.4670    -0.4000     3.8630 hc         1 MQR       0.019700
     32 H14          3.6660    -2.1600     3.8450 hc         1 MQR       0.019700
     33 H15          0.0430    -1.7790     4.4350 hc         1 MQR       0.005033
     34 H16          1.2610    -0.6790     5.0950 hc         1 MQR       0.005033
     35 H17          1.5590    -2.4230     5.0820 hc         1 MQR       0.005033
     36 H1           3.1890     1.7170    -0.6120 ha         1 MQR       0.129000
@<TRIPOS>BOND
     1     1    12 2   
     2     2     3 ar  
     3     2     6 ar  
     4     2    36 1   
     5     3     4 ar  
     6     3    12 1   
     7     4     5 ar  
     8     4    20 1   
     9     5     7 ar  
    10     5    21 1   
    11     6     7 ar  
    12     6    11 ar  
    13     7     8 ar  
    14     8     9 ar  
    15     9    10 ar  
    16     9    22 1   
    17    10    11 ar  
    18    10    23 1   
    19    12    15 1   
    20    13    14 1   
    21    13    18 1   
    22    13    24 1   
    23    13    25 1   
    24    14    15 1   
    25    14    26 1   
    26    14    27 1   
    27    15    16 1   
    28    16    17 1   
    29    16    28 1   
    30    16    29 1   
    31    17    18 1   
    32    17    19 1   
    33    17    30 1   
    34    18    31 1   
    35    18    32 1   
    36    19    33 1   
    37    19    34 1   
    38    19    35 1   
@<TRIPOS>SUBSTRUCTURE
     1 MQR         1 TEMP              0 ****  ****    0 ROOT
