@<TRIPOS>MOLECULE
molecule
   36    38     1     0     0
SMALL
bcc


@<TRIPOS>ATOM
      1 O1           0.0000     0.0000     0.0000 o          1 MQR      -0.599100
      2 C1           2.9500     1.0440    -1.4260 ca         1 MQR      -0.140300
      3 C2           1.9530     0.0940    -1.2770 ca         1 MQR      -0.121600
      4 C3           1.6390    -0.7820    -2.3310 ca         1 MQR      -0.081000
      5 C4           2.3040    -0.7150    -3.5120 ca         1 MQR      -0.162300
      6 C5           3.6450     1.1310    -2.6430 ca         1 MQR       0.289300
      7 C6           3.3220     0.2390    -3.6970 ca         1 MQR       0.308300
      8 N1           3.9870     0.3180    -4.8550 nb         1 MQR      -0.641000
      9 C7           4.9340     1.2150    -5.0030 ca         1 MQR       0.307900
     10 C8           5.2560     2.0920    -3.9630 ca         1 MQR       0.300900
     11 N2           4.6100     2.0420    -2.8210 nb         1 MQR      -0.639000
     12 C9           1.2150     0.0000     0.0000 c          1 MQR       0.673700
     13 C10          3.9080    -1.2220     1.9280 c3         1 MQR      -0.098400
     14 C11          3.3560     0.0000     1.1870 c3         1 MQR       0.088000
     15 N3           1.8890    -0.0830     1.1640 n          1 MQR      -0.483800
     16 C12          1.1710    -0.2600     2.4340 c3         1 MQR       0.113000
     17 C13          1.7480    -1.4790     3.1610 c3         1 MQR      -0.093700
     18 C14          3.2610    -1.3090     3.3120 c3         1 MQR      -0.077400
     19 C15          1.1060    -1.5990     4.5440 c3         1 MQR      -0.088100
     20 H2           0.8560    -1.5190    -2.1990 ha         1 MQR       0.154000
     21 H3           2.0500    -1.3960    -4.3150 ha         1 MQR       0.156000
     22 H4           5.4770     1.2710    -5.9380 h4         1 MQR       0.033100
     23 H5           6.0400     2.8260    -4.1040 h4         1 MQR       0.033100
     24 H6           3.6780    -2.1190     1.3660 hc         1 MQR       0.050700
     25 H7           4.9810    -1.1230     2.0380 hc         1 MQR       0.050700
     26 H8           3.7340     0.0090     0.1720 h1         1 MQR       0.057200
     27 H9           3.6590     0.9040     1.7020 h1         1 MQR       0.057200
     28 H10          0.1180    -0.4210     2.2360 h1         1 MQR       0.063700
     29 H11          1.2990     0.6230     3.0490 h1         1 MQR       0.063700
     30 H12          1.5420    -2.3720     2.5830 hc         1 MQR       0.060700
     31 H13          3.4670    -0.4000     3.8630 hc         1 MQR       0.044700
     32 H14          3.6660    -2.1600     3.8450 hc         1 MQR       0.044700
     33 H15          0.0430    -1.7790     4.4350 hc         1 MQR       0.037700
     34 H16          1.2610    -0.6790     5.0950 hc         1 MQR       0.037700
     35 H17          1.5590    -2.4230     5.0820 hc         1 MQR       0.037700
     36 H1           3.1890     1.7170    -0.6120 ha         1 MQR       0.158000
@<TRIPOS>BOND
     1    13    14 1
     2    13    18 1
     3    14    15 1
     4    18    17 1
     5     8     9 ar
     6     8     7 ar
     7     9    10 ar
     8     5     7 ar
     9     5     4 ar
    10     7     6 ar
    11    10    11 ar
    12     4     3 ar
    13     6    11 ar
    14     6     2 ar
    15    15    16 1
    16    15    12 1
    17     3     2 ar
    18     3    12 1
    19    17    16 1
    20    17    19 1
    21    12     1 2
    22     2    36 1
    23     4    20 1
    24     5    21 1
    25     9    22 1
    26    10    23 1
    27    13    24 1
    28    13    25 1
    29    14    26 1
    30    14    27 1
    31    16    28 1
    32    16    29 1
    33    17    30 1
    34    18    31 1
    35    18    32 1
    36    19    33 1
    37    19    34 1
    38    19    35 1
@<TRIPOS>SUBSTRUCTURE
     1 MQR         1 TEMP              0 ****  ****    0 ROOT
