@<TRIPOS>MOLECULE
MQS
   36    38     1     0     0
SMALL
bcc


@<TRIPOS>ATOM
      1 C1           0.0000     0.0000     0.0000 ca         1 MQS      -0.125300
      2 C2           1.3850     0.0000     0.0000 ca         1 MQS      -0.128600
      3 C3           2.0980     0.0000     1.2110 ca         1 MQS      -0.046000
      4 C4           1.4470    -0.0010     2.4030 ca         1 MQS      -0.140300
      5 C5          -0.6910     0.0040     1.2220 ca         1 MQS       0.251300
      6 C6           0.0410    -0.0020     2.4380 ca         1 MQS       0.271300
      7 N1          -0.6170    -0.0040     3.6030 nb         1 MQS      -0.535000
      8 C7          -1.9300    -0.0050     3.6100 ca         1 MQS       0.294900
      9 C8          -2.6510    -0.0050     2.4130 ca         1 MQS       0.288900
     10 N2          -2.0290     0.0040     1.2570 nb         1 MQS      -0.534000
     11 C9           2.1180     0.0010    -1.2840 c          1 MQS       0.605700
     12 C10          1.0550     3.1210    -2.5470 c3         1 MQS      -0.038400
     13 C11          0.5920     1.7280    -2.1080 c3         1 MQS       0.017000
     14 N3           1.6970     0.7800    -2.3000 n          1 MQS      -0.141800
     15 C12          2.3360     0.6980    -3.6200 c3         1 MQS       0.050000
     16 C13          2.7800     2.1020    -4.0420 c3         1 MQS      -0.070700
     17 C14          1.5810     3.0510    -3.9820 c3         1 MQS      -0.027400
     18 O1           3.1000    -0.7020    -1.4230 o          1 MQS      -0.642100
     19 C15          3.3260     2.0580    -5.4710 c3         1 MQS       0.011900
     20 H1          -0.5460    -0.0000    -0.9360 ha         1 MQS       0.131000
     21 H2           3.1810     0.0000     1.1930 ha         1 MQS       0.124000
     22 H3           2.0110    -0.0010     3.3270 ha         1 MQS       0.123000
     23 H4          -2.4600    -0.0120     4.5550 h4         1 MQS      -0.010900
     24 H5          -3.7340    -0.0050     2.4390 h4         1 MQS      -0.010900
     25 H7           1.8460     3.4610    -1.8890 hc         1 MQS       0.022200
     26 H8           0.3120     1.7530    -1.0620 h1         1 MQS       0.035700
     27 H9          -0.2560     1.4230    -2.7090 h1         1 MQS       0.035700
     28 H10          1.6270     0.3100    -4.3420 h1         1 MQS       0.038200
     29 H11          3.1990     0.0460    -3.5650 h1         1 MQS       0.038200
     30 H12          3.5510     2.4530    -3.3670 hc         1 MQS       0.036700
     31 H13          0.7990     2.6830    -4.6350 hc         1 MQS       0.019200
     32 H14          1.8890     4.0400    -4.3010 hc         1 MQS       0.019200
     33 H15          3.5840     3.0600    -5.7900 hc         1 MQS       0.005033
     34 H16          4.2080     1.4300    -5.5010 hc         1 MQS       0.005033
     35 H17          2.5710     1.6510    -6.1330 hc         1 MQS       0.005033
     36 H6           0.2200     3.8090    -2.5020 hc         1 MQS       0.022200
@<TRIPOS>BOND
     1     1     2 ar  
     2     1     5 ar  
     3     1    20 1   
     4     2     3 ar  
     5     2    11 1   
     6     3     4 ar  
     7     3    21 1   
     8     4     6 ar  
     9     4    22 1   
    10     5     6 ar  
    11     5    10 ar  
    12     6     7 ar  
    13     7     8 ar  
    14     8     9 ar  
    15     8    23 1   
    16     9    10 ar  
    17     9    24 1   
    18    11    14 1   
    19    11    18 2   
    20    12    13 1   
    21    12    17 1   
    22    12    25 1   
    23    12    36 1   
    24    13    14 1   
    25    13    26 1   
    26    13    27 1   
    27    14    15 1   
    28    15    16 1   
    29    15    28 1   
    30    15    29 1   
    31    16    17 1   
    32    16    19 1   
    33    16    30 1   
    34    17    31 1   
    35    17    32 1   
    36    19    33 1   
    37    19    34 1   
    38    19    35 1   
@<TRIPOS>SUBSTRUCTURE
     1 MQS         1 TEMP              0 ****  ****    0 ROOT
