@<TRIPOS>MOLECULE
molecule
   36    38     1     0     0
SMALL
bcc


@<TRIPOS>ATOM
      1 C1           0.0000     0.0000     0.0000 ca         1 MQS      -0.138300
      2 C2           1.3850     0.0000     0.0000 ca         1 MQS      -0.124600
      3 C3           2.0980     0.0000     1.2110 ca         1 MQS      -0.078000
      4 C4           1.4470    -0.0010     2.4030 ca         1 MQS      -0.164300
      5 C5          -0.6910     0.0040     1.2220 ca         1 MQS       0.287300
      6 C6           0.0410    -0.0020     2.4380 ca         1 MQS       0.310300
      7 N1          -0.6170    -0.0040     3.6030 nb         1 MQS      -0.641000
      8 C7          -1.9300    -0.0050     3.6100 ca         1 MQS       0.308900
      9 C8          -2.6510    -0.0050     2.4130 ca         1 MQS       0.300900
     10 N2          -2.0290     0.0040     1.2570 nb         1 MQS      -0.639000
     11 C9           2.1180     0.0010    -1.2840 c          1 MQS       0.674700
     12 C10          1.0550     3.1210    -2.5470 c3         1 MQS      -0.098400
     13 C11          0.5920     1.7280    -2.1080 c3         1 MQS       0.089000
     14 N3           1.6970     0.7800    -2.3000 n          1 MQS      -0.483800
     15 C12          2.3360     0.6980    -3.6200 c3         1 MQS       0.112000
     16 C13          2.7800     2.1020    -4.0420 c3         1 MQS      -0.092700
     17 C14          1.5810     3.0510    -3.9820 c3         1 MQS      -0.077400
     18 O1           3.1000    -0.7020    -1.4230 o          1 MQS      -0.601100
     19 C15          3.3260     2.0580    -5.4710 c3         1 MQS      -0.088100
     20 H1          -0.5460    -0.0000    -0.9360 ha         1 MQS       0.159000
     21 H2           3.1810     0.0000     1.1930 ha         1 MQS       0.157000
     22 H3           2.0110    -0.0010     3.3270 ha         1 MQS       0.156000
     23 H4          -2.4600    -0.0120     4.5550 h4         1 MQS       0.033100
     24 H5          -3.7340    -0.0050     2.4390 h4         1 MQS       0.033100
     25 H7           1.8460     3.4610    -1.8890 hc         1 MQS       0.051200
     26 H8           0.3120     1.7530    -1.0620 h1         1 MQS       0.056200
     27 H9          -0.2560     1.4230    -2.7090 h1         1 MQS       0.056200
     28 H10          1.6270     0.3100    -4.3420 h1         1 MQS       0.063700
     29 H11          3.1990     0.0460    -3.5650 h1         1 MQS       0.063700
     30 H12          3.5510     2.4530    -3.3670 hc         1 MQS       0.062700
     31 H13          0.7990     2.6830    -4.6350 hc         1 MQS       0.044700
     32 H14          1.8890     4.0400    -4.3010 hc         1 MQS       0.044700
     33 H15          3.5840     3.0600    -5.7900 hc         1 MQS       0.037700
     34 H16          4.2080     1.4300    -5.5010 hc         1 MQS       0.037700
     35 H17          2.5710     1.6510    -6.1330 hc         1 MQS       0.037700
     36 H6           0.2200     3.8090    -2.5020 hc         1 MQS       0.051200
@<TRIPOS>BOND
     1    19    16 1
     2    16    15 1
     3    16    17 1
     4    15    14 1
     5    17    12 1
     6     8     7 ar
     7     8     9 ar
     8     7     6 ar
     9     9    10 ar
    10     6     4 ar
    11     6     5 ar
    12     4     3 ar
    13    10     5 ar
    14     5     1 ar
    15    14    13 1
    16    14    11 1
    17     3     2 ar
    18     1     2 ar
    19    12    13 1
    20     2    11 1
    21    11    18 2
    22     1    20 1
    23     3    21 1
    24     4    22 1
    25     8    23 1
    26     9    24 1
    27    12    36 1
    28    12    25 1
    29    13    26 1
    30    13    27 1
    31    15    28 1
    32    15    29 1
    33    16    30 1
    34    17    31 1
    35    17    32 1
    36    19    33 1
    37    19    34 1
    38    19    35 1
@<TRIPOS>SUBSTRUCTURE
     1 MQS         1 TEMP              0 ****  ****    0 ROOT
