@<TRIPOS>MOLECULE
molecule
   47    48     1     0     0
SMALL
bcc


@<TRIPOS>ATOM
      1 C1           0.0000     0.0000     0.0000 c3         1 MQT       0.333900
      2 O1          -0.4760     0.0570    -1.3460 os         1 MQT      -0.388600
      3 C2           1.5310     0.0000     0.0000 c3         1 MQT       0.137100
      4 O2           2.0160     1.1860    -0.6830 os         1 MQT      -0.375900
      5 C3           2.0330     0.0000     1.4470 c3         1 MQT       0.148100
      6 O3           3.4830     0.0750     1.4580 os         1 MQT      -0.398900
      7 C4           1.4510     1.2150     2.1780 c3         1 MQT       0.097100
      8 O4           1.9280     2.4140     1.5640 oh         1 MQT      -0.559800
      9 C5          -0.0760     1.1680     2.0930 c3         1 MQT       0.151100
     10 O5          -0.4750     1.1390     0.7210 os         1 MQT      -0.413600
     11 C6          -0.6630     2.4090     2.7680 c3         1 MQT       0.150400
     12 O6          -2.0880     2.3100     2.7930 oh         1 MQT      -0.600800
     13 OAA          3.4780    -1.0710     3.3590 o          1 MQT      -0.562000
     14 CAB          4.1180    -0.5110     2.4910 c          1 MQT       0.647700
     15 CAC          5.5930    -0.4750     2.5680 ca         1 MQT      -0.144600
     16 CAD          6.2540    -1.0820     3.6370 ca         1 MQT      -0.065500
     17 CAE          7.6320    -1.0440     3.7040 ca         1 MQT      -0.147000
     18 CAF          8.3580    -0.4070     2.7130 ca         1 MQT      -0.047300
     19 CAG          9.8620    -0.3690     2.7920 c3         1 MQT      -0.054800
     20 CAH          7.7090     0.1970     1.6510 ca         1 MQT      -0.147000
     21 CAI          6.3320     0.1610     1.5690 ca         1 MQT      -0.065500
     22 CAN          2.2200     1.0870    -2.0060 c          1 MQT       0.632100
     23 OAO          2.0010     0.0440    -2.5750 o          1 MQT      -0.548000
     24 CAP          2.7240     2.2770    -2.7810 c3         1 MQT      -0.134100
     25 CAS         -1.8960    -0.0520    -1.4660 c3         1 MQT       0.129700
     26 H1          -0.3590    -0.9030     0.4780 h2         1 MQT       0.032700
     27 H2           1.8910    -0.8880    -0.5060 h1         1 MQT       0.090700
     28 H3           1.7080    -0.9080     1.9420 h1         1 MQT       0.087700
     29 H4           1.7550     1.1890     3.2170 h1         1 MQT       0.050700
     30 HO4          2.3250     2.9650     2.2170 ho         1 MQT       0.395000
     31 H5          -0.4360     0.2760     2.5910 h1         1 MQT       0.050700
     32 H6          -0.3720     3.2930     2.2130 h1         1 MQT       0.036200
     33 H6A         -0.2880     2.4800     3.7820 h1         1 MQT       0.036200
     34 HO6         -2.4420     3.0060     3.3200 ho         1 MQT       0.403000
     35 HAD          5.6870    -1.5820     4.4130 ha         1 MQT       0.153500
     36 HAE          8.1470    -1.5150     4.5330 ha         1 MQT       0.138500
     37 HAG         10.1740     0.5310     3.3080 hc         1 MQT       0.048367
     38 HAGA        10.2170    -1.2380     3.3330 hc         1 MQT       0.048367
     39 HAGB        10.2760    -0.3730     1.7910 hc         1 MQT       0.048367
     40 HAH          8.2830     0.6930     0.8780 ha         1 MQT       0.138500
     41 HAI          5.8250     0.6340     0.7370 ha         1 MQT       0.153500
     42 HAP          1.9960     3.0770    -2.7270 hc         1 MQT       0.066700
     43 HAPA         3.6630     2.6130    -2.3570 hc         1 MQT       0.066700
     44 HAPB         2.8760     1.9960    -3.8160 hc         1 MQT       0.066700
     45 HAS         -2.1530    -0.3300    -2.4820 h1         1 MQT       0.037367
     46 HASA        -2.3530     0.9000    -1.2260 h1         1 MQT       0.037367
     47 HASB        -2.2600    -0.8090    -0.7820 h1         1 MQT       0.037367
@<TRIPOS>BOND
     1     1     2 1
     2     1     3 1
     3     1    10 1
     4     2    25 1
     5     3     4 1
     6     3     5 1
     7     4    22 1
     8     5     6 1
     9     5     7 1
    10     6    14 1
    11     7     8 1
    12     7     9 1
    13     9    10 1
    14     9    11 1
    15    11    12 1
    16    13    14 2
    17    14    15 1
    18    15    16 ar
    19    15    21 ar
    20    16    17 ar
    21    17    18 ar
    22    18    19 1
    23    18    20 ar
    24    20    21 ar
    25    22    23 2
    26    22    24 1
    27     1    26 1
    28     3    27 1
    29     5    28 1
    30     7    29 1
    31     8    30 1
    32     9    31 1
    33    11    32 1
    34    11    33 1
    35    12    34 1
    36    16    35 1
    37    17    36 1
    38    19    37 1
    39    19    38 1
    40    19    39 1
    41    20    40 1
    42    21    41 1
    43    24    42 1
    44    24    43 1
    45    24    44 1
    46    25    45 1
    47    25    46 1
    48    25    47 1
@<TRIPOS>SUBSTRUCTURE
     1 MQT         1 TEMP              0 ****  ****    0 ROOT
