@<TRIPOS>MOLECULE
MQT
   47    48     1     0     0
SMALL
bcc


@<TRIPOS>ATOM
      1 C1         -0.0480    0.0440    0.0740 c3        1 MQT      0.325900
      2 O1         -0.4430    0.3510   -1.2420 os        1 MQT     -0.399600
      3 C2          1.4930   -0.0660    0.1010 c3        1 MQT      0.125100
      4 O2          2.0420    1.0800   -0.5480 os        1 MQT     -0.425900
      5 C3          1.9400   -0.0680    1.5730 c3        1 MQT      0.107100
      6 O3          3.3710   -0.0180    1.5550 os        1 MQT     -0.415900
      7 C4          1.3580    1.1140    2.3680 c3        1 MQT      0.105100
      8 O4          1.9220    2.3510    1.9990 oh        1 MQT     -0.581800
      9 C5         -0.1690    1.1040    2.1990 c3        1 MQT      0.070100
     10 O5         -0.5320    1.1570    0.8160 os        1 MQT     -0.449600
     11 C6         -0.8090    2.3400    2.8380 c3        1 MQT      0.143400
     12 O6         -2.2110    2.3230    2.6860 oh        1 MQT     -0.597800
     13 OAA         3.3380   -0.8580    3.6270 o         1 MQT     -0.553000
     14 CAB         4.0250   -0.4620    2.6800 c         1 MQT      0.659700
     15 CAC         5.4880   -0.4040    2.5840 ca        1 MQT     -0.142600
     16 CAD         6.2450   -0.7580    3.7100 ca        1 MQT     -0.062500
     17 CAE         7.6340   -0.7160    3.6530 ca        1 MQT     -0.151000
     18 CAF         8.2850   -0.3240    2.4750 ca        1 MQT     -0.037300
     19 CAG         9.7640   -0.2960    2.4130 c3        1 MQT     -0.062800
     20 CAH         7.5220    0.0290    1.3550 ca        1 MQT     -0.151000
     21 CAI         6.1310   -0.0090    1.4050 ca        1 MQT     -0.062500
     22 CAN         2.7880    0.9040   -1.6880 c         1 MQT      0.652100
     23 OAO         3.0180   -0.2380   -2.0840 o         1 MQT     -0.536000
     24 CAP         3.2150    2.2030   -2.2780 c3        1 MQT     -0.148100
     25 CAS        -1.8510    0.2970   -1.4440 c3        1 MQT      0.119700
     26 H1         -0.5130   -0.9100    0.4520 h2        1 MQT      0.047700
     27 H2          1.8170   -1.0120   -0.4120 h1        1 MQT      0.110700
     28 H3          1.6010   -1.0290    2.0530 h1        1 MQT      0.081700
     29 H4          1.6280    0.9950    3.4570 h1        1 MQT      0.106700
     30 HO4         1.7380    2.4860    1.0580 ho        1 MQT      0.424000
     31 H5         -0.5940    0.1660    2.6530 h1        1 MQT      0.057700
     32 H6         -0.6290    2.3260    3.9450 h1        1 MQT      0.064700
     33 H6A        -0.3690    3.2680    2.3860 h1        1 MQT      0.064700
     34 HO6        -2.3920    2.3200    1.7360 ho        1 MQT      0.411000
     35 HAD         5.7280   -1.0670    4.6340 ha        1 MQT      0.155500
     36 HAE         8.2260   -0.9920    4.5380 ha        1 MQT      0.139500
     37 HAG        10.2030   -0.0700    3.4160 hc        1 MQT      0.050367
     38 HAGA       10.1470   -1.2950    2.0800 hc        1 MQT      0.050367
     39 HAGB       10.1210    0.4750    1.6870 hc        1 MQT      0.050367
     40 HAH         8.0270    0.3390    0.4270 ha        1 MQT      0.139500
     41 HAI         5.5330    0.2680    0.5230 ha        1 MQT      0.155500
     42 HAP         3.2570    2.9990   -1.4950 hc        1 MQT      0.078033
     43 HAPA        4.2200    2.0790   -2.7490 hc        1 MQT      0.078033
     44 HAPB        2.4720    2.4990   -3.0600 hc        1 MQT      0.078033
     45 HAS        -1.9750    0.5570   -2.5250 h1        1 MQT      0.042033
     46 HASA       -2.3690    1.0420   -0.7940 h1        1 MQT      0.042033
     47 HASB       -2.2340   -0.7320   -1.2370 h1        1 MQT      0.042033
@<TRIPOS>BOND
     1    1    2 1   
     2    1    3 1   
     3    1   10 1   
     4    1   26 1   
     5    2   25 1   
     6    3    4 1   
     7    3    5 1   
     8    3   27 1   
     9    4   22 1   
    10    5    6 1   
    11    5    7 1   
    12    5   28 1   
    13    6   14 1   
    14    7    8 1   
    15    7    9 1   
    16    7   29 1   
    17    8   30 1   
    18    9   10 1   
    19    9   11 1   
    20    9   31 1   
    21   11   12 1   
    22   11   32 1   
    23   11   33 1   
    24   12   34 1   
    25   13   14 2   
    26   14   15 1   
    27   15   16 ar  
    28   15   21 ar  
    29   16   17 ar  
    30   16   35 1   
    31   17   18 ar  
    32   17   36 1   
    33   18   19 1   
    34   18   20 ar  
    35   19   37 1   
    36   19   38 1   
    37   19   39 1   
    38   20   21 ar  
    39   20   40 1   
    40   21   41 1   
    41   22   23 2   
    42   22   24 1   
    43   24   42 1   
    44   24   43 1   
    45   24   44 1   
    46   25   45 1   
    47   25   46 1   
    48   25   47 1   
@<TRIPOS>SUBSTRUCTURE
     1 MQT         1 TEMP              0 ****  ****    0 ROOT
