@<TRIPOS>MOLECULE
molecule
   41    43     1     0     0
SMALL
bcc


@<TRIPOS>ATOM
      1 C1           0.0000     0.0000     0.0000 c3         1 MQU       0.058000
      2 C2           1.5290     0.0000     0.0000 c3         1 MQU       0.111900
      3 O8           2.0060     0.0000     1.3480 os         1 MQU      -0.416600
      4 C14          3.4330     0.0010     1.2800 c3         1 MQU       0.117700
      5 C5          -0.5100     1.2490     0.7220 c3         1 MQU       0.111900
      6 O11         -0.0340     2.4160     0.0480 os         1 MQU      -0.416600
      7 C18         -0.5410     3.5430     0.7660 c3         1 MQU       0.117700
      8 N22         -3.6350    -3.4040    -4.3650 nb         1 MQU      -0.747000
      9 N23         -3.3870    -1.9510    -6.1610 nb         1 MQU      -0.779000
     10 N24         -0.4880    -0.0000    -1.3810 na         1 MQU      -0.038400
     11 C27         -2.8760    -2.6250    -3.5790 ca         1 MQU       0.454600
     12 C28         -3.8720    -3.0610    -5.6170 ca         1 MQU       0.930900
     13 C29         -2.6270    -1.1170    -5.4640 ca         1 MQU       0.740200
     14 C30         -2.3380    -1.4380    -4.1220 ca         1 MQU      -0.255600
     15 C31         -1.5160    -0.5830    -3.2750 ca         1 MQU      -0.062800
     16 C32         -0.8350     0.6410    -3.4700 cc         1 MQU      -0.195200
     17 C33         -0.2290     0.9630    -2.3140 cd         1 MQU      -0.096100
     18 C34         -1.2800    -0.9740    -1.9500 ca         1 MQU      -0.095200
     19 C35         -1.8320    -2.1620    -1.4630 ca         1 MQU      -0.085000
     20 C36         -2.6030    -2.9620    -2.2430 ca         1 MQU      -0.181300
     21 H1          -0.3610    -0.8850     0.5110 h1         1 MQU       0.086700
     22 H21          1.8910    -0.8850    -0.5110 h1         1 MQU       0.047450
     23 H22          1.8910     0.8840    -0.5110 h1         1 MQU       0.047450
     24 H141         3.7700     0.8900     0.7620 h1         1 MQU       0.034367
     25 H142         3.8420    -0.0090     2.2840 h1         1 MQU       0.034367
     26 H143         3.7700    -0.8790     0.7450 h1         1 MQU       0.034367
     27 H51         -1.5930     1.2490     0.7220 h1         1 MQU       0.047450
     28 H52         -0.1480     1.2490     1.7430 h1         1 MQU       0.047450
     29 H181        -1.6240     3.5280     0.7440 h1         1 MQU       0.034367
     30 H182        -0.1830     4.4550     0.3040 h1         1 MQU       0.034367
     31 H183        -0.1990     3.5000     1.7930 h1         1 MQU       0.034367
     32 H251        -4.2720    -4.7270    -6.7870 hn         1 MQU       0.440800
     33 H252        -5.6230    -3.6680    -6.5490 hn         1 MQU       0.440800
     34 H261        -2.6610     0.8810    -6.0070 hn         1 MQU       0.439800
     35 H262        -1.2590     0.0090    -6.5370 hn         1 MQU       0.439800
     36 H32         -0.8070     1.2160    -4.3870 ha         1 MQU       0.156000
     37 H33          0.3720     1.8490    -2.1490 h4         1 MQU       0.183000
     38 H35         -1.6410    -2.4510    -0.4370 ha         1 MQU       0.125000
     39 H36         -3.0140    -3.8750    -1.8290 ha         1 MQU       0.151000
     40 N25         -4.6600    -3.8920    -6.3940 nv         1 MQU      -1.058500
     41 N26         -2.1280     0.0350    -6.0390 nv         1 MQU      -1.077500
@<TRIPOS>BOND
     1     1     2 1
     2     1     5 1
     3     1    10 1
     4     1    21 1
     5     2     3 1
     6     2    22 1
     7     2    23 1
     8     3     4 1
     9     4    24 1
    10     4    25 1
    11     4    26 1
    12     5     6 1
    13     5    27 1
    14     5    28 1
    15     6     7 1
    16     7    29 1
    17     7    30 1
    18     7    31 1
    19     8    11 ar
    20     8    12 ar
    21     9    12 ar
    22     9    13 ar
    23    10    17 1
    24    10    18 1
    25    40    12 1
    26    40    32 1
    27    40    33 1
    28    41    13 1
    29    41    34 1
    30    41    35 1
    31    11    14 ar
    32    11    20 ar
    33    13    14 ar
    34    14    15 ar
    35    15    16 1
    36    15    18 ar
    37    16    17 2
    38    16    36 1
    39    17    37 1
    40    18    19 ar
    41    19    20 ar
    42    19    38 1
    43    20    39 1
@<TRIPOS>SUBSTRUCTURE
     1 MQU         1 TEMP              0 ****  ****    0 ROOT
