@<TRIPOS>MOLECULE
MQY
   48    51     1     0     0
SMALL
bcc


@<TRIPOS>ATOM
      1 N1           0.0000     0.0000     0.0000 n          1 MQY       0.029400
      2 C2          -0.7880     0.0010    -1.1600 ca         1 MQY      -0.031400
      3 C3           1.3380     0.0000     0.0000 c          1 MQY       0.624500
      4 C4          -0.4980     0.0060     1.2530 c          1 MQY       0.620500
      5 C5          -0.1910     0.1300    -2.4060 ca         1 MQY      -0.169500
      6 C6          -2.1670    -0.1320    -1.0650 ca         1 MQY      -0.169500
      7 N7           1.8520     0.0000     1.2430 n          1 MQY      -0.163800
      8 O8           2.0130     0.0000    -1.0100 o          1 MQY      -0.689500
      9 C9           0.7080     0.0030     2.1720 c3         1 MQY      -0.095300
     10 O10         -1.6650     0.0110     1.5770 o          1 MQY      -0.595500
     11 C11         -0.9690     0.1300    -3.5470 ca         1 MQY       0.033500
     12 C12         -2.9400    -0.1300    -2.2090 ca         1 MQY       0.033500
     13 C13          3.2720    -0.0010     1.6040 c3         1 MQY       0.154300
     14 C14          0.7250     1.2630     3.0390 c3         1 MQY       0.005900
     15 C15         -2.3430     0.0030    -3.4490 ca         1 MQY      -0.184500
     16 C16          3.7910    -1.4160     1.5930 ca         1 MQY      -0.104300
     17 S17         -3.3320     0.0060    -4.9060 sy         1 MQY       0.879300
     18 C18          3.5650    -2.2770     2.6840 ca         1 MQY      -0.128300
     19 C19          4.4890    -1.9000     0.5230 ca         1 MQY      -0.180300
     20 C20         -3.4330    -1.7410    -5.3870 c3         1 MQY       0.611700
     21 O21         -4.6000     0.4770    -4.4690 o          1 MQY      -0.537300
     22 O22         -2.5650     0.7400    -5.8500 o          1 MQY      -0.537300
     23 C23          4.0730    -3.6000     2.6310 ca         1 MQY       0.367600
     24 C24          2.8530    -1.8520     3.8160 ca         1 MQY      -0.126000
     25 C25          4.9600    -3.2110     0.5360 ca         1 MQY       0.407200
     26 F26         -4.0260    -2.4750    -4.3550 f          1 MQY      -0.188967
     27 F27         -4.2050    -1.8600    -6.5480 f          1 MQY      -0.188967
     28 F28         -2.1460    -2.2320    -5.6310 f          1 MQY      -0.188967
     29 N29          4.7520    -4.0090     1.5550 nb         1 MQY      -0.555000
     30 C30          3.8480    -4.4610     3.7190 ca         1 MQY      -0.125300
     31 C31          2.6560    -2.7150     4.8500 ca         1 MQY      -0.079000
     32 C32          3.1530    -4.0170     4.8010 ca         1 MQY      -0.100000
     33 H5           0.8850     0.2290    -2.4830 ha         1 MQY       0.171000
     34 H6          -2.6350    -0.2370    -0.0940 ha         1 MQY       0.171000
     35 H9           0.7150    -0.8900     2.7850 h1         1 MQY       0.074700
     36 H11         -0.5030     0.2330    -4.5200 ha         1 MQY       0.128000
     37 H12         -4.0160    -0.2320    -2.1350 ha         1 MQY       0.128000
     38 H13          3.3930     0.4210     2.5940 h1         1 MQY       0.040700
     39 H13A         3.8270     0.5930     0.8880 h1         1 MQY       0.040700
     40 H14          1.6080     1.2570     3.6670 hc         1 MQY       0.020367
     41 H14A         0.7410     2.1390     2.4020 hc         1 MQY       0.020367
     42 H14B        -0.1610     1.2850     3.6620 hc         1 MQY       0.020367
     43 H19          4.6760    -1.2650    -0.3340 ha         1 MQY       0.128000
     44 H24          2.4620    -0.8430     3.8670 ha         1 MQY       0.111000
     45 H25          5.5120    -3.5810    -0.3200 h4         1 MQY      -0.016900
     46 H30          4.2280    -5.4760     3.6960 ha         1 MQY       0.120000
     47 H31          2.1060    -2.3860     5.7240 ha         1 MQY       0.103000
     48 H32          2.9840    -4.6840     5.6370 ha         1 MQY       0.107000
@<TRIPOS>BOND
     1     1     2 1   
     2     1     3 1   
     3     1     4 1   
     4     2     5 ar  
     5     2     6 ar  
     6     3     7 1   
     7     3     8 2   
     8     4     9 1   
     9     4    10 2   
    10     5    11 ar  
    11     5    33 1   
    12     6    12 ar  
    13     6    34 1   
    14     7     9 1   
    15     7    13 1   
    16     9    14 1   
    17     9    35 1   
    18    11    15 ar  
    19    11    36 1   
    20    12    15 ar  
    21    12    37 1   
    22    13    16 1   
    23    13    38 1   
    24    13    39 1   
    25    14    40 1   
    26    14    41 1   
    27    14    42 1   
    28    15    17 1   
    29    16    18 ar  
    30    16    19 ar  
    31    17    20 1   
    32    17    21 2   
    33    17    22 2   
    34    18    23 ar  
    35    18    24 ar  
    36    19    25 ar  
    37    19    43 1   
    38    20    26 1   
    39    20    27 1   
    40    20    28 1   
    41    23    29 ar  
    42    23    30 ar  
    43    24    31 ar  
    44    24    44 1   
    45    25    29 ar  
    46    25    45 1   
    47    30    32 ar  
    48    30    46 1   
    49    31    32 ar  
    50    31    47 1   
    51    32    48 1   
@<TRIPOS>SUBSTRUCTURE
     1 MQY         1 TEMP              0 ****  ****    0 ROOT
