@<TRIPOS>MOLECULE
molecule
   85    87     1     0     0
SMALL
bcc


@<TRIPOS>ATOM
      1 N1           0.0000     0.0000     0.0000 ns         1 MR0      -0.557900
      2 C4          -2.2140     0.9010    -0.4360 ca         1 MR0      -0.129600
      3 C5          -2.7620    -0.3650    -0.3750 ca         1 MR0      -0.008000
      4 C8          -0.7390     1.0380    -0.5370 c          1 MR0       0.680700
      5 C10         -4.5540    -1.7530     2.2890 c3         1 MR0       0.102500
      6 C13         -3.1260    -2.0920     2.6990 c3         1 MR0      -0.106900
      7 C15          1.4490     0.0000     0.0000 c3         1 MR0       0.099700
      8 C17          1.9450     0.0000     1.4600 c3         1 MR0      -0.052100
      9 C20          2.2320    -6.0420    -1.4510 ca         1 MR0      -0.077300
     10 C21          3.4850    -6.5870    -1.1980 ca         1 MR0      -0.163000
     11 C22          3.9520    -7.6370    -1.9870 ca         1 MR0      -0.072000
     12 C24          1.9070    -7.5830    -3.2720 ca         1 MR0       0.142100
     13 C26          2.7060     3.4770     2.7390 ca         1 MR0       0.166400
     14 C28          1.8000     1.3320     2.1550 ca         1 MR0      -0.030300
     15 C           -4.1470    -0.4950    -0.2800 ca         1 MR0      -0.117600
     16 C1          -4.9540     0.6420    -0.2470 ca         1 MR0       0.010000
     17 C2          -4.3760     1.9100    -0.3090 ca         1 MR0      -0.223600
     18 C3          -2.9910     2.0410    -0.4040 ca         1 MR0      -0.069000
     19 O           -5.0700    -2.3430    -1.2870 o          1 MR0      -0.545100
     20 N           -4.9480    -2.4120     1.0470 n          1 MR0      -0.487800
     21 C9          -5.5600    -3.7260     1.1950 c3         1 MR0       0.102500
     22 C11         -7.0750    -3.6470     1.3390 c3         1 MR0      -0.106900
     23 C12         -7.7200    -5.0140     1.5170 c3         1 MR0      -0.088600
     24 C14         -2.7140    -1.4280     4.0040 c3         1 MR0      -0.088600
     25 O1          -0.2650     2.0460    -1.0570 o          1 MR0      -0.583100
     26 C16          1.9960    -1.1760    -0.8380 c3         1 MR0       0.139100
     27 C18          1.5640    -2.5370    -0.2850 c3         1 MR0       0.105800
     28 N2           2.1020    -3.6210    -1.1410 n7         1 MR0      -0.784200
     29 C19          1.7290    -4.9110    -0.6010 c3         1 MR0       0.230100
     30 C23          3.1640    -8.1350    -3.0240 ca         1 MR0      -0.212000
     31 C25          1.4390    -6.5320    -2.4820 ca         1 MR0      -0.136000
     32 O3           1.1370    -8.0690    -4.2820 os         1 MR0      -0.327900
     33 C27          2.8390     2.2460     2.0950 ca         1 MR0      -0.181500
     34 C29          0.6310     1.6150     2.8430 ca         1 MR0      -0.181500
     35 C30          0.4980     2.8450     3.4870 ca         1 MR0       0.166400
     36 C31          1.5360     3.7760     3.4360 ca         1 MR0      -0.213000
     37 O2           1.5370    -1.0460    -2.1840 oh         1 MR0      -0.580800
     38 CO           1.6760    -9.1450    -5.0500 c3         1 MR0       0.127700
     39 N7A         -4.5900     4.3370    -0.3360 nz         1 MR0      -0.685400
     40 O7B         -6.4540     3.0100    -0.1710 o          1 MR0      -0.419100
     41 F30         -0.6260     3.1320     4.1590 f          1 MR0      -0.127900
     42 HN1         -0.4830    -0.7780     0.4030 hn         1 MR0       0.317500
     43 H5          -2.1270    -1.2420    -0.4020 ha         1 MR0       0.177000
     44 H101        -5.2280    -2.0620     3.0790 h1         1 MR0       0.056950
     45 H102        -4.6350    -0.6810     2.1580 h1         1 MR0       0.056950
     46 H131        -2.4520    -1.7700     1.9140 hc         1 MR0       0.042700
     47 H132        -3.0410    -3.1660     2.8120 hc         1 MR0       0.042700
     48 H15          1.7830     0.9200    -0.4640 h1         1 MR0       0.096700
     49 H171         2.9910    -0.2810     1.4680 hc         1 MR0       0.061200
     50 H172         1.3830    -0.7420     2.0150 hc         1 MR0       0.061200
     51 H21          3.8870    -6.0420    -0.3520 ha         1 MR0       0.130000
     52 H22          4.9280    -8.0660    -1.7950 ha         1 MR0       0.136000
     53 H1          -6.0300     0.5410    -0.1730 ha         1 MR0       0.181000
     54 H3          -2.5650     2.9500    -0.8110 ha         1 MR0       0.148000
     55 H91         -5.3210    -4.3240     0.3240 h1         1 MR0       0.056950
     56 H92         -5.1490    -4.2070     2.0750 h1         1 MR0       0.056950
     57 H111        -7.3130    -3.0340     2.2000 hc         1 MR0       0.042700
     58 H112        -7.4860    -3.1800     0.4520 hc         1 MR0       0.042700
     59 H121        -7.4500    -5.6520     0.6850 hc         1 MR0       0.041867
     60 H122        -8.7970    -4.9030     1.5520 hc         1 MR0       0.041867
     61 H123        -7.3730    -5.4590     2.4420 hc         1 MR0       0.041867
     62 H141        -2.8440    -0.3550     3.9200 hc         1 MR0       0.041867
     63 H142        -1.6740    -1.6500     4.2100 hc         1 MR0       0.041867
     64 H143        -3.3300    -1.8040     4.8110 hc         1 MR0       0.041867
     65 H16          3.0780    -1.1300    -0.8350 h1         1 MR0       0.043700
     66 H181         1.9430    -2.6520     0.7230 h1         1 MR0       0.031700
     67 H182         0.4820    -2.5930    -0.2710 h1         1 MR0       0.031700
     68 HN2          3.0030    -3.1920    -1.0640 hn         1 MR0       0.357800
     69 H191         2.1430    -5.0090     0.3960 h1         1 MR0       0.036200
     70 H192         0.6490    -4.9690    -0.5410 h1         1 MR0       0.036200
     71 H23          3.5270    -8.9510    -3.6370 ha         1 MR0       0.142000
     72 H25          0.4630    -6.1010    -2.6710 ha         1 MR0       0.146000
     73 H27          3.7470     2.0090     1.5520 ha         1 MR0       0.149000
     74 H29         -0.1720     0.8880     2.8800 ha         1 MR0       0.149000
     75 H31          1.4320     4.7310     3.9360 ha         1 MR0       0.165000
     76 HO2          2.2730    -0.8880    -2.7520 ho         1 MR0       0.416000
     77 HO1          0.9650    -9.4340    -5.8140 h1         1 MR0       0.044033
     78 HO2A         2.6000    -8.8270    -5.5170 h1         1 MR0       0.044033
     79 HO3          1.8710    -9.9890    -4.4000 h1         1 MR0       0.044033
     80 H7A1        -5.2760     5.0620    -0.2610 hn         1 MR0       0.478133
     81 H7A2        -3.9280     4.4260     0.4100 hn         1 MR0       0.478133
     82 C6          -4.7500    -1.8170    -0.2130 c          1 MR0       0.664700
     83 C7          -5.2180     3.0960    -0.2720 c          1 MR0       0.518700
     84 H7A3        -4.1160     4.4150    -1.2140 hn         1 MR0       0.478133
     85 F26          3.7020     4.3710     2.6880 f          1 MR0      -0.127900
@<TRIPOS>BOND
     1     1     7 1
     2     1     4 1
     3     1    42 1
     4     2     4 1
     5     2    18 ar
     6     2     3 ar
     7     3    15 ar
     8     3    43 1
     9    82    15 1
    10    82    20 1
    11    82    19 2
    12    83    40 2
    13    83    17 1
    14    83    39 1
    15     4    25 2
    16     5     6 1
    17     5    20 1
    18     5    44 1
    19     5    45 1
    20     6    24 1
    21     6    46 1
    22     6    47 1
    23     7    26 1
    24     7     8 1
    25     7    48 1
    26     8    14 1
    27     8    49 1
    28     8    50 1
    29     9    31 ar
    30     9    10 ar
    31     9    29 1
    32    10    11 ar
    33    10    51 1
    34    11    30 ar
    35    11    52 1
    36    12    32 1
    37    12    30 ar
    38    12    31 ar
    39    13    85 1
    40    13    33 ar
    41    13    36 ar
    42    14    33 ar
    43    14    34 ar
    44    15    16 ar
    45    16    17 ar
    46    16    53 1
    47    17    18 ar
    48    18    54 1
    49    20    21 1
    50    21    22 1
    51    21    55 1
    52    21    56 1
    53    22    23 1
    54    22    57 1
    55    22    58 1
    56    23    59 1
    57    23    60 1
    58    23    61 1
    59    24    62 1
    60    24    63 1
    61    24    64 1
    62    26    27 1
    63    26    37 1
    64    26    65 1
    65    27    28 1
    66    27    66 1
    67    27    67 1
    68    28    29 1
    69    28    68 1
    70    29    69 1
    71    29    70 1
    72    30    71 1
    73    31    72 1
    74    32    38 1
    75    33    73 1
    76    34    35 ar
    77    34    74 1
    78    35    36 ar
    79    35    41 1
    80    36    75 1
    81    37    76 1
    82    38    77 1
    83    38    78 1
    84    38    79 1
    85    39    80 1
    86    39    81 1
    87    84    39 1
@<TRIPOS>SUBSTRUCTURE
     1 MR0         1 TEMP              0 ****  ****    0 ROOT
