@<TRIPOS>MOLECULE
MR1
   21    22     1     0     0
SMALL
bcc


@<TRIPOS>ATOM
      1 C36          0.0000     0.0000     0.0000 ca         1 MR1      -0.078000
      2 C35          1.3800     0.0000     0.0000 ca         1 MR1       0.076100
      3 O39          2.1780     0.0000     1.1020 os         1 MR1      -0.273900
      4 C38          3.4860     0.0010     0.4940 c3         1 MR1       0.399200
      5 O37          3.4470     0.0010    -0.9470 os         1 MR1      -0.265900
      6 C34          2.1040     0.0010    -1.1700 ca         1 MR1       0.113100
      7 C33          1.4880     0.0010    -2.4050 ca         1 MR1      -0.079000
      8 C32          0.0910     0.0010    -2.4330 ca         1 MR1      -0.060000
      9 C31         -0.6480     0.0010    -1.2380 ca         1 MR1      -0.221300
     10 C30         -2.1400     0.0020    -1.2930 c3         1 MR1       0.026100
     11 N           -2.6860     1.3350    -1.3130 nz         1 MR1       0.093400
     12 H36         -0.5420    -0.2810     0.8950 ha         1 MR1       0.132000
     13 H381         4.0040     0.8960     0.8160 h2         1 MR1       0.030700
     14 H382         4.0050    -0.8940     0.8150 h2         1 MR1       0.030700
     15 H33          2.0480    -0.2770    -3.2890 ha         1 MR1       0.144000
     16 H32         -0.4270    -0.0020    -3.3850 ha         1 MR1       0.111000
     17 H301        -2.5230    -0.5220    -0.4260 hx         1 MR1       0.080700
     18 H302        -2.4580    -0.5210    -2.1870 hx         1 MR1       0.080700
     19 HN1         -2.2890     1.8690    -0.5660 hn         1 MR1       0.220467
     20 HN2         -3.6790     1.2900    -1.1990 hn         1 MR1       0.220467
     21 HN3         -2.4690     1.7720    -2.1870 hn         1 MR1       0.220467
@<TRIPOS>BOND
     1     1     2 ar  
     2     1     9 ar  
     3     1    12 1   
     4     2     3 1   
     5     2     6 ar  
     6     3     4 1   
     7     4     5 1   
     8     4    13 1   
     9     4    14 1   
    10     5     6 1   
    11     6     7 ar  
    12     7     8 ar  
    13     7    15 1   
    14     8     9 ar  
    15     8    16 1   
    16     9    10 1   
    17    10    11 1   
    18    10    17 1   
    19    10    18 1   
    20    11    19 1   
    21    11    20 1   
    22    11    21 1   
@<TRIPOS>SUBSTRUCTURE
     1 MR1         1 TEMP              0 ****  ****    0 ROOT
