@<TRIPOS>MOLECULE
MR2
   46    50     1     0     0
SMALL
bcc


@<TRIPOS>ATOM
      1 C1           0.0000     0.0000     0.0000 c          1 MR2       0.827200
      2 C2           1.4760     0.0000     0.0000 ca         1 MR2      -0.183600
      3 C3           2.2350     0.0000     1.1520 ca         1 MR2      -0.006000
      4 C4           3.6240     0.0090     1.0670 ca         1 MR2      -0.088000
      5 C5           4.2770     0.0250    -0.1300 ca         1 MR2      -0.087000
      6 C6           3.5620     0.0300    -1.3390 ca         1 MR2       0.018000
      7 C7           4.2000     0.0710    -2.5910 ca         1 MR2      -0.420200
      8 C8           3.4460     0.0700    -3.7260 ca         1 MR2       0.007000
      9 C9           2.0540     0.0210    -3.6760 ca         1 MR2      -0.125000
     10 C10          1.4000    -0.0240    -2.4820 ca         1 MR2      -0.049300
     11 C11          2.1500    -0.0000    -1.2990 ca         1 MR2      -0.009000
     12 C12         -0.1020    -0.1140    -2.4200 c3         1 MR2       0.374700
     13 C13         -0.5200    -1.5570    -2.5430 ca         1 MR2      -0.143800
     14 C14         -1.6880    -1.9900    -1.9420 ca         1 MR2      -0.067250
     15 C15         -2.0750    -3.3110    -2.0540 ca         1 MR2      -0.136750
     16 C16         -1.2890    -4.2050    -2.7690 ca         1 MR2       0.137600
     17 C17         -0.1150    -3.7690    -3.3650 ca         1 MR2      -0.136750
     18 C18          0.2640    -2.4450    -3.2560 ca         1 MR2      -0.067250
     19 C19         -0.6930     0.6760    -3.5580 ca         1 MR2      -0.143800
     20 C20         -0.7950     0.1070    -4.8140 ca         1 MR2      -0.067250
     21 C21         -1.3370     0.8290    -5.8590 ca         1 MR2      -0.136750
     22 C22         -1.7790     2.1260    -5.6480 ca         1 MR2       0.137600
     23 C23         -1.6770     2.6950    -4.3870 ca         1 MR2      -0.136750
     24 C24         -1.1380     1.9670    -3.3440 ca         1 MR2      -0.067250
     25 N1           5.6770     0.1150    -2.6760 no         1 MR2       1.047200
     26 O1          -0.5870     0.4220    -1.1570 os         1 MR2      -0.418900
     27 O2          -0.6490    -0.3530     0.9650 o          1 MR2      -0.588500
     28 O3          -1.6680    -5.5050    -2.8800 oh         1 MR2      -0.499100
     29 O4          -2.3140     2.8380    -6.6750 oh         1 MR2      -0.499100
     30 O5           6.2180     0.7870    -3.5350 o          1 MR2      -0.444000
     31 O6           6.3510    -0.5210    -1.8850 o          1 MR2      -0.444000
     32 H3           1.7510    -0.0130     2.1210 ha         1 MR2       0.124000
     33 H4           4.2060     0.0040     1.9810 ha         1 MR2       0.113000
     34 H5           5.3600     0.0320    -0.1490 ha         1 MR2       0.147000
     35 H8           3.9400     0.1080    -4.6890 ha         1 MR2       0.123000
     36 H9           1.4850     0.0210    -4.5980 ha         1 MR2       0.137000
     37 H14         -2.3010    -1.2920    -1.3840 ha         1 MR2       0.122000
     38 H15         -2.9910    -3.6500    -1.5850 ha         1 MR2       0.118250
     39 H17          0.5000    -4.4640    -3.9240 ha         1 MR2       0.118250
     40 H18          1.1810    -2.1050    -3.7210 ha         1 MR2       0.122000
     41 H20         -0.4500    -0.9070    -4.9790 ha         1 MR2       0.122000
     42 H21         -1.4160     0.3820    -6.8430 ha         1 MR2       0.118250
     43 H23         -2.0240     3.7070    -4.2200 ha         1 MR2       0.118250
     44 H24         -1.0580     2.4110    -2.3590 ha         1 MR2       0.122000
     45 HO3         -2.2050    -5.6120    -3.6470 ho         1 MR2       0.405000
     46 HO4         -1.6300     3.3130    -7.1180 ho         1 MR2       0.405000
@<TRIPOS>BOND
     1     1     2 1   
     2     1    26 1   
     3     1    27 2   
     4     2     3 ar  
     5     2    11 ar  
     6     3     4 ar  
     7     3    32 1   
     8     4     5 ar  
     9     4    33 1   
    10     5     6 ar  
    11     5    34 1   
    12     6     7 ar  
    13     6    11 ar  
    14     7     8 ar  
    15     7    25 1   
    16     8     9 ar  
    17     8    35 1   
    18     9    10 ar  
    19     9    36 1   
    20    10    11 ar  
    21    10    12 1   
    22    12    13 1   
    23    12    19 1   
    24    12    26 1   
    25    13    14 ar  
    26    13    18 ar  
    27    14    15 ar  
    28    14    37 1   
    29    15    16 ar  
    30    15    38 1   
    31    16    17 ar  
    32    16    28 1   
    33    17    18 ar  
    34    17    39 1   
    35    18    40 1   
    36    19    20 ar  
    37    19    24 ar  
    38    20    21 ar  
    39    20    41 1   
    40    21    22 ar  
    41    21    42 1   
    42    22    23 ar  
    43    22    29 1   
    44    23    24 ar  
    45    23    43 1   
    46    24    44 1   
    47    25    30 1   
    48    25    31 1   
    49    28    45 1   
    50    29    46 1   
@<TRIPOS>SUBSTRUCTURE
     1 MR2         1 TEMP              0 ****  ****    0 ROOT
