@<TRIPOS>MOLECULE
MR3
   13    13     1     0     0
SMALL
bcc


@<TRIPOS>ATOM
      1 CAA         0.0100   -0.0050    0.0000 c3        1 MR3      0.024600
      2 NAF         1.4340    0.0270    0.0000 na        1 MR3     -0.070100
      3 CAD         2.2490    0.0110    1.1330 cc        1 MR3     -0.165300
      4 CAB         3.5870   -0.0050    0.7180 cd        1 MR3     -0.196000
      5 CAC         3.5870   -0.0060   -0.7170 cd        1 MR3     -0.196000
      6 CAE         2.2490    0.0090   -1.1330 cc        1 MR3     -0.165300
      7 HAA1       -0.3830    0.5100    0.9170 h1        1 MR3      0.048700
      8 HAA2       -0.3600   -1.0670   -0.0040 h1        1 MR3      0.048700
      9 HAA3       -0.3830    0.5160   -0.9130 h1        1 MR3      0.048700
     10 HAD         1.8240    0.0180    2.1360 h4        1 MR3      0.162000
     11 HAB         4.4600   -0.0130    1.3610 ha        1 MR3      0.150000
     12 HAC         4.4600   -0.0150   -1.3600 ha        1 MR3      0.150000
     13 HAE         1.8250    0.0150   -2.1360 h4        1 MR3      0.162000
@<TRIPOS>BOND
     1    1    2 1   
     2    1    7 1   
     3    1    8 1   
     4    1    9 1   
     5    2    3 1   
     6    2    6 1   
     7    3    4 2   
     8    3   10 1   
     9    4    5 1   
    10    4   11 1   
    11    5    6 2   
    12    5   12 1   
    13    6   13 1   
@<TRIPOS>SUBSTRUCTURE
     1 MR3         1 TEMP              0 ****  ****    0 ROOT
