@<TRIPOS>MOLECULE
molecule
   13    13     1     0     0
SMALL
bcc


@<TRIPOS>ATOM
      1 CAA          0.0000     0.0000     0.0000 c3         1 MR3       0.030600
      2 NAF          1.4460     0.0000     0.0000 na         1 MR3      -0.047100
      3 CAD          2.2360     0.0000     1.1200 cc         1 MR3      -0.171800
      4 CAB          3.5500    -0.0000     0.7090 cd         1 MR3      -0.204000
      5 CAC          3.5510    -0.0010    -0.7080 cd         1 MR3      -0.204000
      6 CAE          2.2360    -0.0020    -1.1190 cc         1 MR3      -0.171800
      7 HAA1        -0.3610     0.8750     0.5260 h1         1 MR3       0.048367
      8 HAA2        -0.3610     0.0180    -1.0210 h1         1 MR3       0.048367
      9 HAA3        -0.3610    -0.8940     0.4950 h1         1 MR3       0.048367
     10 HAD          1.8880     0.0010     2.1460 h4         1 MR3       0.164500
     11 HAB          4.4230    -0.0000     1.3510 ha         1 MR3       0.147000
     12 HAC          4.4240    -0.0020    -1.3490 ha         1 MR3       0.147000
     13 HAE          1.8890    -0.0030    -2.1460 h4         1 MR3       0.164500
@<TRIPOS>BOND
     1     1     2 1
     2     1     7 1
     3     1     8 1
     4     1     9 1
     5     2     3 1
     6     2     6 1
     7     3     4 2
     8     3    10 1
     9     4     5 1
    10     4    11 1
    11     5     6 2
    12     5    12 1
    13     6    13 1
@<TRIPOS>SUBSTRUCTURE
     1 MR3         1 TEMP              0 ****  ****    0 ROOT
