@<TRIPOS>MOLECULE
MR4
   31    33     1     0     0
SMALL
bcc


@<TRIPOS>ATOM
      1 CAA         0.0320    0.0150    0.1850 c3        1 MR4     -0.049300
      2 CAL         1.5090   -0.0220    0.1040 ca        1 MR4     -0.137800
      3 CAH         2.2990   -0.0080    1.2500 ca        1 MR4     -0.055000
      4 CAO         2.1430   -0.0720   -1.1580 ca        1 MR4      0.147100
      5 OAC         1.3040   -0.0830   -2.2460 oh        1 MR4     -0.492100
      6 CAM         3.5460   -0.1080   -1.2700 ca        1 MR4     -0.137800
      7 CAB         4.2060   -0.1600   -2.5940 c3        1 MR4     -0.049300
      8 CAI         4.3150   -0.0930   -0.1030 ca        1 MR4     -0.055000
      9 CAN         3.6990   -0.0430    1.1530 ca        1 MR4     -0.156900
     10 CAP         4.5130   -0.0280    2.3560 cc        1 MR4      0.607200
     11 OAK         3.7940    0.0190    3.5910 os        1 MR4     -0.314700
     12 CAR         4.7890    0.0250    4.5660 ca        1 MR4      0.033100
     13 CAG         4.6520    0.0640    5.9450 ca        1 MR4     -0.114000
     14 CAE         5.8390    0.0590    6.6790 ca        1 MR4     -0.114000
     15 CAD         7.0930    0.0170    6.0540 ca        1 MR4     -0.146000
     16 CAF         7.2310   -0.0220    4.6680 ca        1 MR4     -0.070000
     17 CAQ         6.0630   -0.0190    3.9000 ca        1 MR4      0.062400
     18 NAJ         5.8370   -0.0510    2.5060 nd        1 MR4     -0.564100
     19 HAA1       -0.3600    0.9050   -0.3680 hc        1 MR4      0.048533
     20 HAA2       -0.3170    0.0660    1.2450 hc        1 MR4      0.048533
     21 HAA3       -0.3990   -0.9000   -0.2940 hc        1 MR4      0.048533
     22 HAH         1.8220    0.0310    2.2430 ha        1 MR4      0.156500
     23 HOAC        1.8420   -0.1170   -3.0510 ho        1 MR4      0.424000
     24 HAB1        5.3190   -0.1840   -2.4880 hc        1 MR4      0.048533
     25 HAB2        3.9360    0.7380   -3.2050 hc        1 MR4      0.048533
     26 HAB3        3.8920   -1.0770   -3.1540 hc        1 MR4      0.048533
     27 HAI         5.4140   -0.1200   -0.1780 ha        1 MR4      0.156500
     28 HAG         3.6670    0.0970    6.4280 ha        1 MR4      0.152000
     29 HAE         5.7870    0.0890    7.7780 ha        1 MR4      0.137000
     30 HAD         7.9990    0.0150    6.6800 ha        1 MR4      0.136000
     31 HAF         8.2200   -0.0550    4.1910 ha        1 MR4      0.152000
@<TRIPOS>BOND
     1    1    2 1   
     2    1   19 1   
     3    1   20 1   
     4    1   21 1   
     5    2    3 ar  
     6    2    4 ar  
     7    3    9 ar  
     8    3   22 1   
     9    4    5 1   
    10    4    6 ar  
    11    5   23 1   
    12    6    7 1   
    13    6    8 ar  
    14    7   24 1   
    15    7   25 1   
    16    7   26 1   
    17    8    9 ar  
    18    8   27 1   
    19    9   10 1   
    20   10   11 1   
    21   10   18 2   
    22   11   12 1   
    23   12   13 ar  
    24   12   17 ar  
    25   13   14 ar  
    26   13   28 1   
    27   14   15 ar  
    28   14   29 1   
    29   15   16 ar  
    30   15   30 1   
    31   16   17 ar  
    32   16   31 1   
    33   17   18 1   
@<TRIPOS>SUBSTRUCTURE
     1 MR4         1 TEMP              0 ****  ****    0 ROOT
