@<TRIPOS>MOLECULE
MR5
   25    27     1     0     0
SMALL
bcc


@<TRIPOS>ATOM
      1 CAH         0.0770   -0.1010   -0.0270 ca        1 MR5     -0.015500
      2 CAL         1.4680   -0.1210    0.0730 ca        1 MR5     -0.103400
      3 Br1         2.4760   -0.1770   -1.5070 br        1 MR5     -0.055600
      4 CAO         2.0820   -0.0990    1.3440 ca        1 MR5      0.208100
      5 OAA         3.4380   -0.1170    1.5150 oh        1 MR5     -0.469100
      6 CAM         1.2870   -0.0560    2.5130 ca        1 MR5     -0.103400
      7 Br2         2.0230   -0.0250    4.2350 br        1 MR5     -0.055600
      8 CAI        -0.1010   -0.0360    2.3910 ca        1 MR5     -0.015500
      9 CAN        -0.7100   -0.0590    1.1300 ca        1 MR5     -0.159900
     10 CAP        -2.1590   -0.0380    1.0170 cc        1 MR5      0.597200
     11 OAK        -2.8750    0.0040    2.2540 os        1 MR5     -0.312700
     12 CAR        -4.2150    0.0160    1.8710 ca        1 MR5      0.036100
     13 CAG        -5.3460    0.0540    2.6720 ca        1 MR5     -0.113000
     14 CAE        -6.5700    0.0580    2.0030 ca        1 MR5     -0.109000
     15 CAD        -6.6470    0.0260    0.6030 ca        1 MR5     -0.145000
     16 CAF        -5.5100   -0.0120   -0.2030 ca        1 MR5     -0.066000
     17 CAQ        -4.2660   -0.0170    0.4330 ca        1 MR5      0.059400
     18 NAJ        -2.9420   -0.0510   -0.0590 nd        1 MR5     -0.553100
     19 HAH        -0.4070   -0.1180   -1.0200 ha        1 MR5      0.175000
     20 HOAA        3.8640   -0.1460    0.6400 ho        1 MR5      0.441000
     21 HAI        -0.7360   -0.0030    3.2950 ha        1 MR5      0.175000
     22 HAG        -5.2780    0.0790    3.7670 ha        1 MR5      0.154000
     23 HAE        -7.5000    0.0870    2.5910 ha        1 MR5      0.139000
     24 HAD        -7.6390    0.0300    0.1250 ha        1 MR5      0.139000
     25 HAF        -5.5850   -0.0370   -1.2990 ha        1 MR5      0.154000
@<TRIPOS>BOND
     1    1    2 ar  
     2    1    9 ar  
     3    1   19 1   
     4    2    3 1   
     5    2    4 ar  
     6    4    5 1   
     7    4    6 ar  
     8    5   20 1   
     9    6    7 1   
    10    6    8 ar  
    11    8    9 ar  
    12    8   21 1   
    13    9   10 1   
    14   10   11 1   
    15   10   18 2   
    16   11   12 1   
    17   12   13 ar  
    18   12   17 ar  
    19   13   14 ar  
    20   13   22 1   
    21   14   15 ar  
    22   14   23 1   
    23   15   16 ar  
    24   15   24 1   
    25   16   17 ar  
    26   16   25 1   
    27   17   18 1   
@<TRIPOS>SUBSTRUCTURE
     1 MR5         1 TEMP              0 ****  ****    0 ROOT
