@<TRIPOS>MOLECULE
MR6
   30    32     1     0     0
SMALL
bcc


@<TRIPOS>ATOM
      1 CAA        -0.0310   -0.0030   -0.1300 c3        1 MR6     -0.054800
      2 CAL         1.4480    0.0070   -0.0480 ca        1 MR6     -0.082800
      3 CAH         2.0790    0.0070    1.2000 ca        1 MR6     -0.092000
      4 CAG         2.2200    0.0020   -1.2140 ca        1 MR6     -0.109000
      5 CAM         3.6180   -0.0040   -1.1450 ca        1 MR6     -0.082800
      6 CAB         4.4260    0.0060   -2.3870 c3        1 MR6     -0.054800
      7 CAI         4.2470   -0.0060    0.1030 ca        1 MR6     -0.092000
      8 CAN         3.4780   -0.0000    1.2750 ca        1 MR6     -0.117900
      9 CAO         4.1310   -0.0010    2.5750 cc        1 MR6      0.600200
     10 OAK         5.5610   -0.0080    2.5500 os        1 MR6     -0.312700
     11 CAQ         5.9260   -0.0070    3.8940 ca        1 MR6      0.034100
     12 CAF         7.1980   -0.0120    4.4480 ca        1 MR6     -0.114000
     13 CAD         7.2580   -0.0100    5.8420 ca        1 MR6     -0.112000
     14 CAC         6.0990   -0.0020    6.6310 ca        1 MR6     -0.146000
     15 CAE         4.8220    0.0030    6.0750 ca        1 MR6     -0.069000
     16 CAP         4.7220    0.0010    4.6810 ca        1 MR6      0.060400
     17 NAJ         3.6160    0.0040    3.8030 nd        1 MR6     -0.558100
     18 HAA1       -0.4820    0.5540    0.7290 hc        1 MR6      0.046867
     19 HAA2       -0.3840    0.4680   -1.0810 hc        1 MR6      0.046867
     20 HAA3       -0.4080   -1.0560   -0.1000 hc        1 MR6      0.046867
     21 HAH         1.4730    0.0130    2.1200 ha        1 MR6      0.154000
     22 HAG         1.7240    0.0020   -2.1970 ha        1 MR6      0.135000
     23 HAB1        4.6030    1.0610   -2.7180 hc        1 MR6      0.046867
     24 HAB2        5.4190   -0.4800   -2.2230 hc        1 MR6      0.046867
     25 HAB3        3.8990   -0.5350   -3.2110 hc        1 MR6      0.046867
     26 HAI         5.3460   -0.0130    0.1680 ha        1 MR6      0.154000
     27 HAF         8.1000   -0.0180    3.8240 ha        1 MR6      0.152000
     28 HAD         8.2430   -0.0140    6.3340 ha        1 MR6      0.137000
     29 HAC         6.2040   -0.0010    7.7270 ha        1 MR6      0.137000
     30 HAE         3.9220    0.0090    6.7060 ha        1 MR6      0.152000
@<TRIPOS>BOND
     1    1    2 1   
     2    1   18 1   
     3    1   19 1   
     4    1   20 1   
     5    2    3 ar  
     6    2    4 ar  
     7    3    8 ar  
     8    3   21 1   
     9    4    5 ar  
    10    4   22 1   
    11    5    6 1   
    12    5    7 ar  
    13    6   23 1   
    14    6   24 1   
    15    6   25 1   
    16    7    8 ar  
    17    7   26 1   
    18    8    9 1   
    19    9   10 1   
    20    9   17 2   
    21   10   11 1   
    22   11   12 ar  
    23   11   16 ar  
    24   12   13 ar  
    25   12   27 1   
    26   13   14 ar  
    27   13   28 1   
    28   14   15 ar  
    29   14   29 1   
    30   15   16 ar  
    31   15   30 1   
    32   16   17 1   
@<TRIPOS>SUBSTRUCTURE
     1 MR6         1 TEMP              0 ****  ****    0 ROOT
