@<TRIPOS>MOLECULE
molecule
   68    72     1     0     0
SMALL
bcc


@<TRIPOS>ATOM
      1 C26          0.0000     0.0000     0.0000 c3         1 MR9       0.191300
      2 C27          1.5250     0.0000     0.0000 c3         1 MR9       0.120900
      3 O3           2.0240     0.0000     1.3370 os         1 MR9      -0.412600
      4 C28          1.6260    -1.1870     2.0220 c3         1 MR9       0.120900
      5 C29          0.1070    -1.2550     2.1350 c3         1 MR9       0.191300
      6 N6          -0.4960    -1.1260     0.8040 nh         1 MR9      -0.746000
      7 C20         -1.8040    -1.5690     0.5850 ca         1 MR9       0.116600
      8 C21         -2.8720    -1.0110     1.3180 ca         1 MR9      -0.137000
      9 C22         -4.1850    -1.4380     1.1150 ca         1 MR9      -0.110000
     10 C23         -4.4590    -2.4310     0.1740 ca         1 MR9      -0.163300
     11 C25         -5.8620    -2.8860    -0.0410 c3         1 MR9       0.703200
     12 F2          -6.7730    -2.2440     0.7490 f          1 MR9      -0.235633
     13 F3          -6.3060    -2.7010    -1.3200 f          1 MR9      -0.235633
     14 F1          -6.0280    -4.2170     0.2140 f          1 MR9      -0.235633
     15 C24         -3.4190    -2.9970    -0.5630 ca         1 MR9      -0.118000
     16 C19         -2.1070    -2.5720    -0.3610 ca         1 MR9       0.083600
     17 N4          -1.0820    -3.1550    -1.1120 ns         1 MR9      -0.483100
     18 C17         -1.1810    -4.1590    -2.0940 c          1 MR9       0.689700
     19 O2          -2.2380    -4.6830    -2.4370 o          1 MR9      -0.572100
     20 C12          0.1030    -4.5890    -2.6760 ca         1 MR9      -0.147600
     21 C11          1.2620    -4.4710    -1.9270 ca         1 MR9      -0.127000
     22 C13          0.1250    -5.1040    -3.9620 ca         1 MR9      -0.072000
     23 C14          1.3390    -5.5130    -4.5130 ca         1 MR9      -0.128000
     24 C15          2.5150    -5.4000    -3.7710 ca         1 MR9      -0.047300
     25 C16          3.8060    -5.8420    -4.3770 c3         1 MR9      -0.050800
     26 C10          2.4770    -4.8790    -2.4780 ca         1 MR9       0.115100
     27 O1           3.6160    -4.7610    -1.7400 os         1 MR9      -0.369400
     28 C9           3.9790    -3.4940    -1.3180 ca         1 MR9       0.634600
     29 N3           3.8920    -2.5260    -2.2500 nb         1 MR9      -0.694000
     30 C8           4.2440    -1.2850    -1.8480 ca         1 MR9       0.419200
     31 C7           4.6740    -0.9780    -0.5670 ca         1 MR9      -0.260300
     32 C6           4.7470    -2.0110     0.3610 ca         1 MR9      -0.048000
     33 C5           4.3930    -3.3020    -0.0160 cp         1 MR9      -0.269800
     34 C2           4.4670    -4.3830     0.9420 cp         1 MR9       0.537800
     35 N1           3.3410    -4.5900     1.6550 nb         1 MR9      -0.746000
     36 C3           5.6190    -5.1240     1.0900 ca         1 MR9      -0.394600
     37 C4           5.5640    -6.1280     2.0360 ca         1 MR9       0.472200
     38 N2           4.4730    -6.3920     2.7850 nb         1 MR9      -0.740000
     39 C1           3.4130    -5.5960     2.5470 ca         1 MR9       0.896900
     40 N5           2.2530    -5.8440     3.3130 nu         1 MR9      -0.901900
     41 C18          1.0540    -5.0800     3.1710 c3         1 MR9       0.236100
     42 H261        -0.3590     0.9300     0.4240 h1         1 MR9       0.045450
     43 H262        -0.3590    -0.1000    -1.0170 h1         1 MR9       0.045450
     44 H271         1.8810     0.8850    -0.5130 h1         1 MR9       0.055950
     45 H272         1.8810    -0.8850    -0.5130 h1         1 MR9       0.055950
     46 H281         2.0580    -1.1860     3.0150 h1         1 MR9       0.055950
     47 H282         1.9810    -2.0500     1.4730 h1         1 MR9       0.055950
     48 H291        -0.1780    -2.2070     2.5670 h1         1 MR9       0.045450
     49 H292        -0.2430    -0.4480     2.7680 h1         1 MR9       0.045450
     50 H21         -2.6700    -0.2400     2.0510 ha         1 MR9       0.141000
     51 H22         -4.9920    -0.9970     1.6880 ha         1 MR9       0.150000
     52 H24         -3.6320    -3.7680    -1.2940 ha         1 MR9       0.192000
     53 HN4         -0.1590    -2.8140    -0.9270 hn         1 MR9       0.333500
     54 H11          1.2260    -4.0660    -0.9230 ha         1 MR9       0.150000
     55 H13         -0.7910    -5.1890    -4.5330 ha         1 MR9       0.157000
     56 H14          1.3690    -5.9170    -5.5170 ha         1 MR9       0.145000
     57 H161         3.6060    -6.4300    -5.2640 hc         1 MR9       0.053033
     58 H162         4.3950    -4.9730    -4.6450 hc         1 MR9       0.053033
     59 H163         4.3540    -6.4420    -3.6610 hc         1 MR9       0.053033
     60 H8           4.1870    -0.4810    -2.5710 h4         1 MR9       0.024100
     61 H7           4.9450     0.0360    -0.2970 ha         1 MR9       0.156000
     62 H6           5.0780    -1.8120     1.3730 ha         1 MR9       0.152000
     63 H3           6.5090    -4.9340     0.5020 ha         1 MR9       0.161000
     64 H4           6.4460    -6.7370     2.1870 h4         1 MR9       0.024100
     65 HN5          2.2710    -6.5860     3.9840 hn         1 MR9       0.451800
     66 H181         1.2170    -4.0780     3.5480 h1         1 MR9       0.037033
     67 H182         0.7780    -5.0320     2.1250 h1         1 MR9       0.037033
     68 H183         0.2570    -5.5520     3.7340 h1         1 MR9       0.037033
@<TRIPOS>BOND
     1     1     2 1
     2     1     6 1
     3     1    42 1
     4     1    43 1
     5     2     3 1
     6     2    44 1
     7     2    45 1
     8     3     4 1
     9     4     5 1
    10     4    46 1
    11     4    47 1
    12     5     6 1
    13     5    48 1
    14     5    49 1
    15     6     7 1
    16     7    16 ar
    17     7     8 ar
    18     8     9 ar
    19     8    50 1
    20     9    10 ar
    21     9    51 1
    22    10    15 ar
    23    10    11 1
    24    11    14 1
    25    11    12 1
    26    11    13 1
    27    15    16 ar
    28    15    52 1
    29    16    17 1
    30    17    18 1
    31    17    53 1
    32    18    19 2
    33    18    20 1
    34    20    21 ar
    35    20    22 ar
    36    21    26 ar
    37    21    54 1
    38    22    23 ar
    39    22    55 1
    40    23    24 ar
    41    23    56 1
    42    24    26 ar
    43    24    25 1
    44    25    57 1
    45    25    58 1
    46    25    59 1
    47    26    27 1
    48    27    28 1
    49    28    33 ar
    50    28    29 ar
    51    29    30 ar
    52    30    31 ar
    53    30    60 1
    54    31    32 ar
    55    31    61 1
    56    32    33 ar
    57    32    62 1
    58    33    34 1
    59    34    35 ar
    60    34    36 ar
    61    35    39 ar
    62    36    37 ar
    63    36    63 1
    64    37    38 ar
    65    37    64 1
    66    38    39 ar
    67    39    40 1
    68    40    41 1
    69    40    65 1
    70    41    66 1
    71    41    67 1
    72    41    68 1
@<TRIPOS>SUBSTRUCTURE
     1 MR9         1 TEMP              0 ****  ****    0 ROOT
