@<TRIPOS>MOLECULE
MRA
   39    40     1     0     0
SMALL
bcc


@<TRIPOS>ATOM
      1 C1         -0.2730   -1.0040    0.0360 ca        1 MRA     -0.132000
      2 C2          0.8940   -0.2380    0.1760 ca        1 MRA      0.126900
      3 C3          1.1980    0.3920    1.4180 ca        1 MRA      0.043600
      4 C4          0.3010    0.2280    2.4910 ca        1 MRA     -0.091000
      5 C5         -0.8500   -0.5350    2.3440 ca        1 MRA     -0.112000
      6 C6         -1.1470   -1.1570    1.1190 ca        1 MRA      0.091000
      7 C7         -2.3150   -1.9290    0.9800 cg        1 MRA     -0.171000
      8 C8         -3.3090   -2.5870    0.8620 c1        1 MRA     -0.063500
      9 N1          2.3260    1.2430    1.5240 nh        1 MRA     -0.606000
     10 C9          3.4000    1.0720    2.3550 ca        1 MRA      0.293600
     11 C10         4.3990    2.1000    2.4690 ca        1 MRA     -0.300600
     12 C11         5.5080    1.9320    3.3320 ca        1 MRA     -0.043000
     13 C12         5.6510    0.8230    4.1220 ca        1 MRA     -0.189000
     14 C13         4.6670   -0.1990    4.0670 ca        1 MRA      0.213900
     15 C14         3.5690   -0.0900    3.1950 ca        1 MRA      0.008900
     16 F1          2.6890   -1.1150    3.1430 f         1 MRA     -0.094900
     17 F2          4.8000   -1.2920    4.8380 f         1 MRA     -0.083900
     18 C15         4.2940    3.2940    1.6650 c         1 MRA      0.619700
     19 O1          3.7790    3.5210    0.5800 o         1 MRA     -0.450100
     20 N2          4.8770    4.5920    2.3000 n4        1 MRA     -0.467300
     21 O2          6.2090    4.6430    2.0140 os        1 MRA     -0.214100
     22 C16         6.9070    5.8760    2.3330 c3        1 MRA      0.091400
     23 C17         6.3970    7.0540    1.5200 c3        1 MRA      0.087400
     24 O3          5.1080    7.3700    2.0260 oh        1 MRA     -0.655800
     25 F3          1.7220   -0.0870   -0.8850 f         1 MRA     -0.129900
     26 H1         -0.4890   -1.4840   -0.9320 ha        1 MRA      0.174000
     27 H4          0.5180    0.6960    3.4650 ha        1 MRA      0.148000
     28 H5         -1.5370   -0.6550    3.1970 ha        1 MRA      0.162000
     29 H8         -4.1900   -3.1720    0.7570 ha        1 MRA      0.180500
     30 HN1         2.4460    1.8410    0.7270 hn        1 MRA      0.467800
     31 H11         6.3090    2.6910    3.3490 ha        1 MRA      0.149000
     32 H12         6.5180    0.6920    4.7890 ha        1 MRA      0.183000
     33 HN2         4.3890    5.4150    1.8860 hn        1 MRA      0.466300
     34 H161        7.9560    5.5990    2.0280 h1        1 MRA      0.110700
     35 H162        6.8440    6.0730    3.4340 h1        1 MRA      0.110700
     36 H171        7.1020    7.9190    1.6440 h1        1 MRA      0.077200
     37 H172        6.3150    6.7870    0.4310 h1        1 MRA      0.077200
     38 HO3         4.8700    8.2510    1.7070 ho        1 MRA      0.453000
     39 H22         4.7380    4.5840    3.3210 hn        1 MRA      0.466300
@<TRIPOS>BOND
     1    1    2 ar  
     2    1    6 ar  
     3    1   26 1   
     4    2    3 ar  
     5    2   25 1   
     6    3    4 ar  
     7    3    9 1   
     8    4    5 ar  
     9    4   27 1   
    10    5    6 ar  
    11    5   28 1   
    12    6    7 1   
    13    7    8 3   
    14    8   29 1   
    15    9   10 1   
    16    9   30 1   
    17   10   11 ar  
    18   10   15 ar  
    19   11   12 ar  
    20   11   18 1   
    21   12   13 ar  
    22   12   31 1   
    23   13   14 ar  
    24   13   32 1   
    25   14   15 ar  
    26   14   17 1   
    27   15   16 1   
    28   18   19 2   
    29   18   20 1   
    30   20   21 1   
    31   20   33 1   
    32   20   39 1   
    33   21   22 1   
    34   22   23 1   
    35   22   34 1   
    36   22   35 1   
    37   23   24 1   
    38   23   36 1   
    39   23   37 1   
    40   24   38 1   
@<TRIPOS>SUBSTRUCTURE
     1 MRA         1 TEMP              0 ****  ****    0 ROOT
