@<TRIPOS>MOLECULE
molecule
   38    39     1     0     0
SMALL
bcc


@<TRIPOS>ATOM
      1 C1           0.0000     0.0000     0.0000 ca         1 MRA      -0.128000
      2 C2           1.3790     0.0000     0.0000 ca         1 MRA       0.129900
      3 C3           2.0760     0.0000     1.2060 ca         1 MRA       0.153600
      4 C4           1.3840    -0.0020     2.4110 ca         1 MRA      -0.169000
      5 C5           0.0050    -0.0020     2.4170 ca         1 MRA      -0.110000
      6 C6          -0.6970    -0.0010     1.2110 ca         1 MRA       0.030000
      7 C7          -2.1280    -0.0020     1.2140 cg         1 MRA      -0.124000
      8 C8          -3.3020     0.0180     1.2200 c1         1 MRA      -0.130500
      9 N1           3.4730     0.0000     1.2040 nu         1 MRA      -0.581000
     10 C9           4.1700     0.1130     2.4010 ca         1 MRA       0.095600
     11 C10          4.6510     1.3640     2.8220 ca         1 MRA      -0.115600
     12 C11          5.3500     1.4660     4.0280 ca         1 MRA      -0.072000
     13 C12          5.5640     0.3440     4.7960 ca         1 MRA      -0.181000
     14 C13          5.0890    -0.8930     4.3800 ca         1 MRA       0.153900
     15 C14          4.3890    -1.0080     3.1910 ca         1 MRA       0.014900
     16 F1           3.9240    -2.2140     2.7970 f          1 MRA      -0.120900
     17 F2           5.3040    -1.9870     5.1430 f          1 MRA      -0.118900
     18 C15          4.4210     2.5620     1.9960 c          1 MRA       0.606700
     19 O1           3.7390     2.4860     0.9920 o          1 MRA      -0.501100
     20 N2           4.9650     3.7420     2.3540 ns         1 MRA      -0.356400
     21 O2           4.7440     4.8930     1.5600 os         1 MRA      -0.280900
     22 C16          5.3800     6.0730     2.0560 c3         1 MRA      -0.076600
     23 C17          5.0740     7.2480     1.1250 c3         1 MRA      -0.107600
     24 O3           3.6730     7.5310     1.1600 oh         1 MRA      -0.599800
     25 F3           2.0540     0.0010    -1.1700 f          1 MRA      -0.122900
     26 H1          -0.3490    -0.4050    -0.9420 ha         1 MRA       0.155000
     27 H4           1.6920    -0.2720     3.4140 ha         1 MRA       0.148000
     28 H5          -0.5700     0.0050     3.3350 ha         1 MRA       0.143000
     29 H8          -4.3520    -0.1870     1.3890 ha         1 MRA       0.167500
     30 HN1          4.1990    -0.6880     1.2320 hn         1 MRA       0.434800
     31 H11          5.4240     2.4140     4.5470 ha         1 MRA       0.158000
     32 H12          6.3460     0.5970     5.5010 ha         1 MRA       0.166000
     33 HN2          4.2530     4.2810     2.8050 hn         1 MRA       0.318500
     34 H161         5.8010     6.6980     1.2790 h1         1 MRA       0.118700
     35 H162         6.2150     5.8020     2.6900 h1         1 MRA       0.118700
     36 H171         4.3480     7.1220     0.3300 h1         1 MRA       0.197200
     37 H172         5.9260     7.8320     0.8000 h1         1 MRA       0.197200
     38 HO3          3.2780     8.3510     0.9140 ho         1 MRA       0.387000
@<TRIPOS>BOND
     1     1     2 ar
     2     1     6 ar
     3     1    26 1
     4     2    25 1
     5     2     3 ar
     6     3     9 1
     7     3     4 ar
     8     4     5 ar
     9     4    27 1
    10     5     6 ar
    11     5    28 1
    12     6     7 1
    13     7     8 3
    14     8    29 1
    15     9    10 1
    16     9    30 1
    17    10    15 ar
    18    10    11 ar
    19    11    18 1
    20    11    12 ar
    21    12    13 ar
    22    12    31 1
    23    13    14 ar
    24    13    32 1
    25    14    15 ar
    26    14    17 1
    27    15    16 1
    28    18    19 2
    29    18    20 1
    30    20    21 1
    31    20    33 1
    32    21    22 1
    33    22    23 1
    34    22    34 1
    35    22    35 1
    36    23    24 1
    37    23    36 1
    38    23    37 1
    39    24    38 1
@<TRIPOS>SUBSTRUCTURE
     1 MRA         1 TEMP              0 ****  ****    0 ROOT
