@<TRIPOS>MOLECULE
molecule
   78    79     1     0     0
SMALL
bcc


@<TRIPOS>ATOM
      1 C1           0.0000     0.0000     0.0000 c          1 MRC       0.645300
      2 C2           1.4690     0.0000     0.0000 ce         1 MRC      -0.202200
      3 C3           2.1340     0.0000     1.1540 c2         1 MRC      -0.051400
      4 C4           3.5890    -0.3880     1.1840 c3         1 MRC      -0.040200
      5 C5           4.4540     0.8570     0.9800 c3         1 MRC       0.128100
      6 C6           5.9320     0.4630     1.0190 c3         1 MRC       0.107100
      7 C7           6.7920     1.7210     0.8460 c3         1 MRC       0.135100
      8 C8           6.3430     2.4490    -0.4250 c3         1 MRC      -0.101700
      9 C9           6.6640     1.5890    -1.6480 c3         1 MRC      -0.051400
     10 C10          6.5620     2.4430    -2.9130 cx         1 MRC       0.029100
     11 C11          6.7890     1.7540    -4.2600 cx         1 MRC       0.058100
     12 C12          7.4540     2.5650    -5.3740 c3         1 MRC      -0.056700
     13 C13          7.5560     1.7100    -6.6370 c3         1 MRC       0.152100
     14 C14          8.2210     2.5220    -7.7510 c3         1 MRC      -0.119100
     15 C15          1.4300     0.3870     2.4290 c3         1 MRC      -0.056900
     16 C16          4.8340     2.6950    -0.3550 c3         1 MRC       0.128400
     17 C1'        -10.2590     0.7680    -6.9000 c          1 MRC       0.891600
     18 O1P        -10.9300     0.8970    -8.0550 o          1 MRC      -0.858300
     19 O1Q        -10.8630     0.6230    -5.8640 o          1 MRC      -0.858300
     20 C2'         -8.7520     0.7680    -6.8990 c3         1 MRC      -0.183400
     21 C3'         -8.2430     0.6090    -5.4650 c3         1 MRC      -0.063400
     22 C4'         -6.7130     0.6090    -5.4640 c3         1 MRC      -0.088400
     23 C5'         -6.2030     0.4490    -4.0310 c3         1 MRC      -0.081400
     24 C6'         -4.6740     0.4490    -4.0300 c3         1 MRC      -0.081400
     25 C7'         -4.1650     0.2900    -2.5960 c3         1 MRC      -0.080400
     26 C8'         -2.6340     0.2890    -2.5960 c3         1 MRC      -0.085400
     27 C9'         -2.1250     0.1300    -1.1620 c3         1 MRC       0.153400
     28 O1A         -0.6730     0.1300    -1.1610 os         1 MRC      -0.432900
     29 O1B         -0.6080    -0.1180     1.0460 o          1 MRC      -0.573000
     30 O5           4.1440     1.4480    -0.2820 os         1 MRC      -0.367600
     31 O7           8.1680     1.3510     0.7330 oh         1 MRC      -0.595800
     32 O6           6.2090    -0.4550    -0.0410 oh         1 MRC      -0.575800
     33 O10          5.4920     2.1630    -3.8220 op         1 MRC      -0.365600
     34 C17          8.8560     2.9860    -4.9290 c3         1 MRC      -0.087100
     35 O13          6.2460     1.3160    -7.0530 oh         1 MRC      -0.593800
     36 H2           1.9890    -0.2760    -0.9090 ha         1 MRC       0.156000
     37 H41          3.7900    -1.1000     0.3930 hc         1 MRC       0.064700
     38 H42          3.8230    -0.8370     2.1420 hc         1 MRC       0.064700
     39 H5           4.2530     1.5730     1.7680 h1         1 MRC       0.042700
     40 H6           6.1570     0.0010     1.9730 h1         1 MRC       0.034700
     41 H7           6.6560     2.3710     1.7020 h1         1 MRC       0.033700
     42 H8           6.8590     3.3990    -0.4990 hc         1 MRC       0.053700
     43 H91          7.6690     1.1940    -1.5580 hc         1 MRC       0.084200
     44 H92          5.9590     0.7690    -1.7080 hc         1 MRC       0.084200
     45 H10          6.8670     3.4820    -2.8760 h1         1 MRC       0.079700
     46 H11          6.9740     0.6880    -4.2010 h1         1 MRC       0.091700
     47 H12          6.8610     3.4470    -5.5820 hc         1 MRC       0.079700
     48 H13          8.1500     0.8280    -6.4300 h1         1 MRC       0.026700
     49 H141         7.8650     3.5440    -7.7150 hc         1 MRC       0.040367
     50 H142         7.9740     2.0870    -8.7120 hc         1 MRC       0.040367
     51 H143         9.2960     2.5090    -7.6150 hc         1 MRC       0.040367
     52 H151         0.7960    -0.4290     2.7520 hc         1 MRC       0.052367
     53 H152         0.8250     1.2680     2.2540 hc         1 MRC       0.052367
     54 H153         2.1650     0.5990     3.1960 hc         1 MRC       0.052367
     55 H161         4.5160     3.2290    -1.2420 h1         1 MRC       0.054200
     56 H162         4.6070     3.2820     0.5260 h1         1 MRC       0.054200
     57 H2'1        -8.3910    -0.0540    -7.5040 hc         1 MRC       0.027200
     58 H2'2        -8.3910     1.7040    -7.3080 hc         1 MRC       0.027200
     59 H3'1        -8.6040    -0.3270    -5.0560 hc         1 MRC       0.045200
     60 H3'2        -8.6050     1.4310    -4.8600 hc         1 MRC       0.045200
     61 H4'1        -6.3510    -0.2130    -6.0700 hc         1 MRC       0.029700
     62 H4'2        -6.3520     1.5450    -5.8720 hc         1 MRC       0.029700
     63 H5'1        -6.5640    -0.4870    -3.6220 hc         1 MRC       0.038700
     64 H5'2        -6.5650     1.2710    -3.4250 hc         1 MRC       0.038700
     65 H6'1        -4.3130     1.3850    -4.4390 hc         1 MRC       0.039200
     66 H6'2        -4.3120    -0.3730    -4.6350 hc         1 MRC       0.039200
     67 H7'1        -4.5260    -0.6460    -2.1860 hc         1 MRC       0.041700
     68 H7'2        -4.5260     1.1120    -1.9910 hc         1 MRC       0.041700
     69 H8'1        -2.2730     1.2250    -3.0050 hc         1 MRC       0.053200
     70 H8'2        -2.2730    -0.5330    -3.2010 hc         1 MRC       0.053200
     71 H9'1        -2.4860     0.9520    -0.5570 h1         1 MRC       0.045200
     72 H9'2        -2.4860    -0.8060    -0.7520 h1         1 MRC       0.045200
     73 HO7          8.6450     1.6840     1.4750 ho         1 MRC       0.396000
     74 HO6          6.5900    -1.2400     0.3160 ho         1 MRC       0.398000
     75 H171         8.7900     3.5280    -3.9930 hc         1 MRC       0.037367
     76 H172         9.4720     2.1060    -4.7940 hc         1 MRC       0.037367
     77 H173         9.2980     3.6240    -5.6850 hc         1 MRC       0.037367
     78 HO13         6.2960     0.4940    -7.5130 ho         1 MRC       0.400000
@<TRIPOS>BOND
     1     1     2 1
     2     1    28 1
     3     1    29 2
     4     2     3 2
     5     2    36 1
     6     3     4 1
     7     3    15 1
     8     4     5 1
     9     4    37 1
    10     4    38 1
    11     5     6 1
    12     5    30 1
    13     5    39 1
    14     6     7 1
    15     6    32 1
    16     6    40 1
    17     7     8 1
    18     7    31 1
    19     7    41 1
    20     8     9 1
    21     8    16 1
    22     8    42 1
    23     9    10 1
    24     9    43 1
    25     9    44 1
    26    10    11 1
    27    10    33 1
    28    10    45 1
    29    11    12 1
    30    11    33 1
    31    11    46 1
    32    12    13 1
    33    12    34 1
    34    12    47 1
    35    13    14 1
    36    13    35 1
    37    13    48 1
    38    14    49 1
    39    14    50 1
    40    14    51 1
    41    15    52 1
    42    15    53 1
    43    15    54 1
    44    16    30 1
    45    16    55 1
    46    16    56 1
    47    17    18 1
    48    17    19 1
    49    17    20 1
    50    20    21 1
    51    20    57 1
    52    20    58 1
    53    21    22 1
    54    21    59 1
    55    21    60 1
    56    22    23 1
    57    22    61 1
    58    22    62 1
    59    23    24 1
    60    23    63 1
    61    23    64 1
    62    24    25 1
    63    24    65 1
    64    24    66 1
    65    25    26 1
    66    25    67 1
    67    25    68 1
    68    26    27 1
    69    26    69 1
    70    26    70 1
    71    27    28 1
    72    27    71 1
    73    27    72 1
    74    31    73 1
    75    32    74 1
    76    34    75 1
    77    34    76 1
    78    34    77 1
    79    35    78 1
@<TRIPOS>SUBSTRUCTURE
     1 MRC         1 TEMP              0 ****  ****    0 ROOT
