@<TRIPOS>MOLECULE
MRC
   78    79     1     0     0
SMALL
bcc


@<TRIPOS>ATOM
      1 C1         -0.6340    0.0030   -0.7270 c         1 MRC      0.633300
      2 C2          0.7570   -0.0160   -1.1830 ce        1 MRC     -0.224200
      3 C3          1.8060   -0.0540   -0.3420 c2        1 MRC     -0.027400
      4 C4          3.2000   -0.0990   -0.8720 c3        1 MRC     -0.055200
      5 C5          3.9950    1.1490   -0.4840 c3        1 MRC      0.150100
      6 C6          5.1940    0.8230    0.4250 c3        1 MRC      0.123100
      7 C7          6.0590    2.0840    0.6040 c3        1 MRC      0.103100
      8 C8          6.4300    2.7280   -0.7350 c3        1 MRC     -0.118700
      9 C9          7.4230    1.8840   -1.5200 c3        1 MRC     -0.077400
     10 C10         8.2380    2.7090   -2.4690 cx        1 MRC      0.052100
     11 C11         8.5490    2.2160   -3.8440 cx        1 MRC      0.091100
     12 C12         9.7980    2.6530   -4.5680 c3        1 MRC     -0.060700
     13 C13         9.8830    1.9930   -5.9540 c3        1 MRC      0.145100
     14 C14        10.8490    2.7310   -6.8640 c3        1 MRC     -0.133100
     15 C15         1.6530   -0.0840    1.1310 c3        1 MRC     -0.082900
     16 C16         5.1490    2.9450   -1.5400 c3        1 MRC      0.126400
     17 C1'       -12.0300    0.5130   -5.5120 c         1 MRC      0.907600
     18 O1P       -12.8600   -0.2230   -6.1200 o         1 MRC     -0.853300
     19 O1Q       -12.3610    1.4360   -4.7120 o         1 MRC     -0.853300
     20 C2'       -10.5330    0.2810   -5.7860 c3        1 MRC     -0.194400
     21 C3'        -9.7360    0.2670   -4.5050 c3        1 MRC     -0.065400
     22 C4'        -8.2450    0.2260   -4.7680 c3        1 MRC     -0.078400
     23 C5'        -7.4550    0.1930   -3.4760 c3        1 MRC     -0.079400
     24 C6'        -5.9650    0.1620   -3.7390 c3        1 MRC     -0.078400
     25 C7'        -5.1780    0.1260   -2.4460 c3        1 MRC     -0.078400
     26 C8'        -3.6890    0.0970   -2.7140 c3        1 MRC     -0.085400
     27 C9'        -2.9220    0.0590   -1.4050 c3        1 MRC      0.140400
     28 O1A        -1.5280    0.0360   -1.7620 os        1 MRC     -0.436900
     29 O1B        -1.0810   -0.0070    0.4270 o         1 MRC     -0.562000
     30 O5          4.4130    1.7430   -1.7140 os        1 MRC     -0.397600
     31 O7          7.1970    1.6760    1.3520 oh        1 MRC     -0.609800
     32 O6          5.9250   -0.2490   -0.1430 oh        1 MRC     -0.590800
     33 O10         7.5640    3.2410   -3.6230 os        1 MRC     -0.399600
     34 C17        11.0280    2.3010   -3.7570 c3        1 MRC     -0.091100
     35 O13         8.5700    1.9960   -6.5030 oh        1 MRC     -0.592800
     36 H2          0.8880    0.0070   -2.2780 ha        1 MRC      0.159000
     37 H41         3.7160   -1.0120   -0.4690 hc        1 MRC      0.083200
     38 H42         3.1990   -0.1860   -1.9930 hc        1 MRC      0.083200
     39 H5          3.3470    1.8850    0.0730 h1        1 MRC      0.046700
     40 H6          4.8140    0.5010    1.4370 h1        1 MRC      0.049700
     41 H7          5.4760    2.8330    1.2130 h1        1 MRC      0.044700
     42 H8          6.8880    3.7350   -0.5270 hc        1 MRC      0.052700
     43 H91         6.8550    1.0840   -2.0700 hc        1 MRC      0.073200
     44 H92         8.1260    1.3690   -0.8120 hc        1 MRC      0.073200
     45 H10         8.9120    3.4420   -1.9810 h1        1 MRC      0.076700
     46 H11         8.1170    1.2580   -4.2000 h1        1 MRC      0.107700
     47 H12         9.7500    3.7690   -4.7140 hc        1 MRC      0.075700
     48 H13        10.2170    0.9210   -5.8360 h1        1 MRC      0.031700
     49 H141       11.8670    2.7630   -6.4100 hc        1 MRC      0.044367
     50 H142       10.9160    2.2150   -7.8520 hc        1 MRC      0.044367
     51 H143       10.4970    3.7770   -7.0360 hc        1 MRC      0.044367
     52 H151        1.0590    0.8010    1.4770 hc        1 MRC      0.058700
     53 H152        2.6440   -0.0840    1.6460 hc        1 MRC      0.058700
     54 H153        1.0820   -0.9980    1.4380 hc        1 MRC      0.058700
     55 H161        5.3950    3.2640   -2.5910 h1        1 MRC      0.065200
     56 H162        4.5060    3.7150   -1.0380 h1        1 MRC      0.065200
     57 H2'1      -10.4020   -0.6840   -6.3370 hc        1 MRC      0.018700
     58 H2'2      -10.1750    1.1080   -6.4500 hc        1 MRC      0.018700
     59 H3'1      -10.0320   -0.6240   -3.8910 hc        1 MRC      0.044200
     60 H3'2       -9.9990    1.1810   -3.9080 hc        1 MRC      0.044200
     61 H4'1       -7.9450    1.1260   -5.3670 hc        1 MRC      0.026700
     62 H4'2       -7.9950   -0.6780   -5.3830 hc        1 MRC      0.026700
     63 H5'1       -7.7110    1.0940   -2.8590 hc        1 MRC      0.037200
     64 H5'2       -7.7510   -0.7100   -2.8800 hc        1 MRC      0.037200
     65 H6'1       -5.6690    1.0660   -4.3330 hc        1 MRC      0.036200
     66 H6'2       -5.7100   -0.7380   -4.3580 hc        1 MRC      0.036200
     67 H7'1       -5.4730   -0.7790   -1.8510 hc        1 MRC      0.040200
     68 H7'2       -5.4330    1.0260   -1.8260 hc        1 MRC      0.040200
     69 H8'1       -3.3830    1.0020   -3.3010 hc        1 MRC      0.052200
     70 H8'2       -3.4240   -0.8020   -3.3290 hc        1 MRC      0.052200
     71 H9'1       -3.1190    0.9670   -0.7780 h1        1 MRC      0.050200
     72 H9'2       -3.1570   -0.8590   -0.8080 h1        1 MRC      0.050200
     73 HO7         7.8250    2.4070    1.3320 ho        1 MRC      0.409000
     74 HO6         6.7650   -0.2950    0.3340 ho        1 MRC      0.418000
     75 H171       11.9530    2.6540   -4.2740 hc        1 MRC      0.038033
     76 H172       11.1040    1.1970   -3.6090 hc        1 MRC      0.038033
     77 H173       10.9780    2.7890   -2.7530 hc        1 MRC      0.038033
     78 HO13        8.6520    1.7300   -7.4260 ho        1 MRC      0.401000
@<TRIPOS>BOND
     1    1    2 1   
     2    1   28 1   
     3    1   29 2   
     4    2    3 2   
     5    2   36 1   
     6    3    4 1   
     7    3   15 1   
     8    4    5 1   
     9    4   37 1   
    10    4   38 1   
    11    5    6 1   
    12    5   30 1   
    13    5   39 1   
    14    6    7 1   
    15    6   32 1   
    16    6   40 1   
    17    7    8 1   
    18    7   31 1   
    19    7   41 1   
    20    8    9 1   
    21    8   16 1   
    22    8   42 1   
    23    9   10 1   
    24    9   43 1   
    25    9   44 1   
    26   10   11 1   
    27   10   33 1   
    28   10   45 1   
    29   11   12 1   
    30   11   33 1   
    31   11   46 1   
    32   12   13 1   
    33   12   34 1   
    34   12   47 1   
    35   13   14 1   
    36   13   35 1   
    37   13   48 1   
    38   14   49 1   
    39   14   50 1   
    40   14   51 1   
    41   15   52 1   
    42   15   53 1   
    43   15   54 1   
    44   16   30 1   
    45   16   55 1   
    46   16   56 1   
    47   17   18 1   
    48   17   19 1   
    49   17   20 1   
    50   20   21 1   
    51   20   57 1   
    52   20   58 1   
    53   21   22 1   
    54   21   59 1   
    55   21   60 1   
    56   22   23 1   
    57   22   61 1   
    58   22   62 1   
    59   23   24 1   
    60   23   63 1   
    61   23   64 1   
    62   24   25 1   
    63   24   65 1   
    64   24   66 1   
    65   25   26 1   
    66   25   67 1   
    67   25   68 1   
    68   26   27 1   
    69   26   69 1   
    70   26   70 1   
    71   27   28 1   
    72   27   71 1   
    73   27   72 1   
    74   31   73 1   
    75   32   74 1   
    76   34   75 1   
    77   34   76 1   
    78   34   77 1   
    79   35   78 1   
@<TRIPOS>SUBSTRUCTURE
     1 MRC         1 TEMP              0 ****  ****    0 ROOT
