@<TRIPOS>MOLECULE
MRD
   22    21     1     0     0
SMALL
bcc


@<TRIPOS>ATOM
      1 C1          0.0050    0.0510    0.0910 c3        1 MRD     -0.124600
      2 C2          1.5230   -0.0180   -0.0510 c3        1 MRD      0.148800
      3 O2          2.0930   -0.5890    1.1290 oh        1 MRD     -0.595800
      4 CM          1.8890   -0.8680   -1.2620 c3        1 MRD     -0.124600
      5 C3          2.0840    1.4040   -0.1560 c3        1 MRD     -0.066400
      6 C4          3.6090    1.4560   -0.1930 c3        1 MRD      0.142100
      7 O4          3.9760    2.5820    0.6050 oh        1 MRD     -0.602800
      8 C5          4.1490    1.6220   -1.6030 c3        1 MRD     -0.132100
      9 H1C1       -0.4230   -0.9770    0.1670 hc        1 MRD      0.043200
     10 H1C2       -0.2660    0.6180    1.0130 hc        1 MRD      0.043200
     11 H1C3       -0.4390    0.5620   -0.7950 hc        1 MRD      0.043200
     12 H2          1.7060   -1.4660    1.2260 ho        1 MRD      0.398000
     13 HMC1        1.3780   -1.8590   -1.2070 hc        1 MRD      0.043200
     14 HMC2        1.5770   -0.3530   -2.2000 hc        1 MRD      0.043200
     15 HMC3        2.9920   -1.0400   -1.2870 hc        1 MRD      0.043200
     16 H3C1        1.7330    1.9880    0.7370 hc        1 MRD      0.063700
     17 H3C2        1.6610    1.8830   -1.0750 hc        1 MRD      0.063700
     18 H4          4.0320    0.5220    0.2760 h1        1 MRD      0.053700
     19 HA          4.9390    2.6050    0.6220 ho        1 MRD      0.396000
     20 H5C1        5.2640    1.5790   -1.5960 hc        1 MRD      0.040700
     21 H5C2        3.7610    0.8090   -2.2610 hc        1 MRD      0.040700
     22 H5C3        3.8360    2.6070   -2.0230 hc        1 MRD      0.040700
@<TRIPOS>BOND
     1    1    2 1   
     2    1    9 1   
     3    1   10 1   
     4    1   11 1   
     5    2    3 1   
     6    2    4 1   
     7    2    5 1   
     8    3   12 1   
     9    4   13 1   
    10    4   14 1   
    11    4   15 1   
    12    5    6 1   
    13    5   16 1   
    14    5   17 1   
    15    6    7 1   
    16    6    8 1   
    17    6   18 1   
    18    7   19 1   
    19    8   20 1   
    20    8   21 1   
    21    8   22 1   
@<TRIPOS>SUBSTRUCTURE
     1 MRD         1 TEMP              0 ****  ****    0 ROOT
