@<TRIPOS>MOLECULE
molecule
   22    21     1     0     0
SMALL
bcc


@<TRIPOS>ATOM
      1 C1           0.0000     0.0000     0.0000 c3         1 MRD      -0.122100
      2 C2           1.5300     0.0000     0.0000 c3         1 MRD       0.151800
      3 O2           2.0060     0.0000     1.3470 oh         1 MRD      -0.574800
      4 CM           2.0400    -1.2480    -0.7210 c3         1 MRD      -0.122100
      5 C3           2.0400     1.2500    -0.7210 c3         1 MRD      -0.059400
      6 C4           3.5690     1.2490    -0.7210 c3         1 MRD       0.147100
      7 O4           4.0460     1.2500     0.6260 oh         1 MRD      -0.578800
      8 C5           4.0800     2.4980    -1.4430 c3         1 MRD      -0.131100
      9 H1C1        -0.3610    -0.8870     0.5060 hc         1 MRD       0.040867
     10 H1C2        -0.3610     0.8820     0.5150 hc         1 MRD       0.040867
     11 H1C3        -0.3610     0.0050    -1.0210 hc         1 MRD       0.040867
     12 H2           1.4700    -0.5730     1.8700 ho         1 MRD       0.391000
     13 HMC1         3.0500    -1.4660    -0.3950 hc         1 MRD       0.040867
     14 HMC2         2.0350    -1.0740    -1.7900 hc         1 MRD       0.040867
     15 HMC3         1.3960    -2.0880    -0.4890 hc         1 MRD       0.040867
     16 H3C1         1.6790     1.2500    -1.7430 hc         1 MRD       0.057200
     17 H3C2         1.6790     2.1340    -0.2100 hc         1 MRD       0.057200
     18 H4           3.9300     0.3640    -1.2310 h1         1 MRD       0.027700
     19 HA           4.9860     1.1750     0.6260 ho         1 MRD       0.391000
     20 H5C1         3.7710     3.3820    -0.8970 hc         1 MRD       0.039700
     21 H5C2         5.1610     2.4670    -1.4970 hc         1 MRD       0.039700
     22 H5C3         3.6690     2.5300    -2.4440 hc         1 MRD       0.039700
@<TRIPOS>BOND
     1     1     2 1
     2     1     9 1
     3     1    10 1
     4     1    11 1
     5     2     3 1
     6     2     4 1
     7     2     5 1
     8     3    12 1
     9     4    13 1
    10     4    14 1
    11     4    15 1
    12     5     6 1
    13     5    16 1
    14     5    17 1
    15     6     7 1
    16     6     8 1
    17     6    18 1
    18     7    19 1
    19     8    20 1
    20     8    21 1
    21     8    22 1
@<TRIPOS>SUBSTRUCTURE
     1 MRD         1 TEMP              0 ****  ****    0 ROOT
