@<TRIPOS>MOLECULE
MRE
   34    35     1     0     0
SMALL
bcc


@<TRIPOS>ATOM
      1 C1           0.0000     0.0000     0.0000 ca         1 MRE       0.084400
      2 C2           1.5030     0.0000     0.0000 ca         1 MRE      -0.045600
      3 C3           2.1430     0.0000     1.2460 ca         1 MRE      -0.108000
      4 C4           1.3930     0.0150     2.4410 ca         1 MRE      -0.116000
      5 C5          -0.0100     0.0230     2.4210 ca         1 MRE      -0.149000
      6 C6          -0.7070     0.0370     1.2070 ca         1 MRE      -0.103000
      7 C1'         -1.0380    -0.3850    -3.4050 ca         1 MRE       0.018400
      8 C2'         -2.4220    -0.1070    -3.3990 ca         1 MRE      -0.020000
      9 C3'         -3.0830     0.0880    -4.6130 ca         1 MRE      -0.210000
     10 C4'         -2.3630     0.0330    -5.8010 ca         1 MRE       0.079600
     11 C5'         -0.9990    -0.2150    -5.8120 ca         1 MRE      -0.210000
     12 C6'         -0.3170    -0.4360    -4.5970 ca         1 MRE      -0.020000
     13 C            2.3160     0.0330    -1.2840 c          1 MRE       0.968200
     14 CHX         -4.3490     0.5360    -7.1860 c3         1 MRE       0.183100
     15 CHZ         -2.4020     0.3620    -8.2990 c3         1 MRE       0.183100
     16 N1          -0.6710     0.0400    -1.2210 ne         1 MRE      -0.213400
     17 N1'         -0.3010    -0.5710    -2.2360 nf         1 MRE      -0.046400
     18 OXT          2.3140    -0.9390    -2.2450 o          1 MRE      -0.872800
     19 O            2.9980     1.0570    -1.4500 o          1 MRE      -0.872800
     20 N10         -2.9890     0.2650    -7.0140 nh         1 MRE      -0.363000
     21 H6          -1.7900     0.0400     1.2020 ha         1 MRE       0.093000
     22 H3           3.2260    -0.0030     1.2920 ha         1 MRE       0.108000
     23 H4           1.9100     0.0090     3.3930 ha         1 MRE       0.080000
     24 H5          -0.5590     0.0430     3.3550 ha         1 MRE       0.083000
     25 H2'         -2.9690    -0.0690    -2.4650 ha         1 MRE       0.131500
     26 H6'          0.7470    -0.6410    -4.5900 ha         1 MRE       0.131500
     27 H3'         -4.1470     0.2920    -4.6290 ha         1 MRE       0.107000
     28 H5'         -0.4600    -0.2510    -6.7510 ha         1 MRE       0.107000
     29 HHX1        -4.5250     0.8670    -8.2030 h1         1 MRE      -0.001633
     30 HHX2        -4.6530     1.3140    -6.4960 h1         1 MRE      -0.001633
     31 HHX3        -4.9240    -0.3620    -6.9940 h1         1 MRE      -0.001633
     32 HHZ1        -1.5770    -0.3350    -8.3730 h1         1 MRE      -0.001633
     33 HHZ2        -3.1430     0.1260    -9.0530 h1         1 MRE      -0.001633
     34 HHZ3        -2.0380     1.3710    -8.4540 h1         1 MRE      -0.001633
@<TRIPOS>BOND
     1     1     2 ar  
     2     1     6 ar  
     3     1    16 1   
     4     2     3 ar  
     5     2    13 1   
     6     3     4 ar  
     7     3    22 1   
     8     4     5 ar  
     9     4    23 1   
    10     5     6 ar  
    11     5    24 1   
    12     6    21 1   
    13     7     8 ar  
    14     7    12 ar  
    15     7    17 1   
    16     8     9 ar  
    17     8    25 1   
    18     9    10 ar  
    19     9    27 1   
    20    10    11 ar  
    21    10    20 1   
    22    11    12 ar  
    23    11    28 1   
    24    12    26 1   
    25    13    18 1   
    26    13    19 1   
    27    14    20 1   
    28    14    29 1   
    29    14    30 1   
    30    14    31 1   
    31    15    20 1   
    32    15    32 1   
    33    15    33 1   
    34    15    34 1   
    35    16    17 2   
@<TRIPOS>SUBSTRUCTURE
     1 MRE         1 TEMP              0 ****  ****    0 ROOT
