@<TRIPOS>MOLECULE
molecule
   34    35     1     0     0
SMALL
bcc


@<TRIPOS>ATOM
      1 C1           0.0000     0.0000     0.0000 ca         1 MRE       0.120400
      2 C2           1.5030     0.0000     0.0000 ca         1 MRE      -0.050600
      3 C3           2.1430     0.0000     1.2460 ca         1 MRE      -0.135000
      4 C4           1.3930     0.0150     2.4410 ca         1 MRE      -0.137000
      5 C5          -0.0100     0.0230     2.4210 ca         1 MRE      -0.172000
      6 C6          -0.7070     0.0370     1.2070 ca         1 MRE      -0.116000
      7 C1'         -1.0380    -0.3850    -3.4050 ca         1 MRE       0.053400
      8 C2'         -2.4220    -0.1070    -3.3990 ca         1 MRE      -0.050000
      9 C3'         -3.0830     0.0880    -4.6130 ca         1 MRE      -0.224000
     10 C4'         -2.3630     0.0330    -5.8010 ca         1 MRE       0.214600
     11 C5'         -0.9990    -0.2150    -5.8120 ca         1 MRE      -0.224000
     12 C6'         -0.3170    -0.4360    -4.5970 ca         1 MRE      -0.050000
     13 C            2.3160     0.0330    -1.2840 c          1 MRE       0.877200
     14 CHX         -4.3490     0.5360    -7.1860 c3         1 MRE       0.218600
     15 CHZ         -2.4020     0.3620    -8.2990 c3         1 MRE       0.218600
     16 N1          -0.6710     0.0400    -1.2210 ne         1 MRE      -0.272400
     17 N1'         -0.3010    -0.5710    -2.2360 nf         1 MRE      -0.097400
     18 OXT          2.3140    -0.9390    -2.2450 o          1 MRE      -0.820300
     19 O            2.9980     1.0570    -1.4500 o          1 MRE      -0.820300
     20 N10         -2.9890     0.2650    -7.0140 nh         1 MRE      -0.724000
     21 H6          -1.7900     0.0400     1.2020 ha         1 MRE       0.119000
     22 H3           3.2260    -0.0030     1.2920 ha         1 MRE       0.136000
     23 H4           1.9100     0.0090     3.3930 ha         1 MRE       0.105000
     24 H5          -0.5590     0.0430     3.3550 ha         1 MRE       0.106000
     25 H2'         -2.9690    -0.0690    -2.4650 ha         1 MRE       0.164000
     26 H6'          0.7470    -0.6410    -4.5900 ha         1 MRE       0.164000
     27 H3'         -4.1470     0.2920    -4.6290 ha         1 MRE       0.124000
     28 H5'         -0.4600    -0.2510    -6.7510 ha         1 MRE       0.124000
     29 HHX1        -4.5250     0.8660    -8.2030 h1         1 MRE       0.024367
     30 HHX2        -4.9240    -0.3620    -6.9930 h1         1 MRE       0.024367
     31 HHX3        -4.6530     1.3140    -6.4960 h1         1 MRE       0.024367
     32 HHZ1        -1.5770    -0.3350    -8.3730 h1         1 MRE       0.024367
     33 HHZ2        -2.0380     1.3710    -8.4540 h1         1 MRE       0.024367
     34 HHZ3        -3.1430     0.1260    -9.0530 h1         1 MRE       0.024367
@<TRIPOS>BOND
     1     1     2 ar
     2     1     6 ar
     3     1    16 1
     4     2     3 ar
     5     2    13 1
     6     3     4 ar
     7     4     5 ar
     8     5     6 ar
     9     7     8 ar
    10     7    12 ar
    11     7    17 1
    12     8     9 ar
    13     9    10 ar
    14    10    11 ar
    15    10    20 1
    16    11    12 ar
    17    13    18 1
    18    13    19 1
    19    14    20 1
    20    15    20 1
    21    16    17 2
    22     6    21 1
    23     3    22 1
    24     4    23 1
    25     5    24 1
    26     8    25 1
    27    12    26 1
    28     9    27 1
    29    11    28 1
    30    14    29 1
    31    14    30 1
    32    14    31 1
    33    15    32 1
    34    15    33 1
    35    15    34 1
@<TRIPOS>SUBSTRUCTURE
     1 MRE         1 TEMP              0 ****  ****    0 ROOT
