@<TRIPOS>MOLECULE
molecule
   32    34     1     0     0
SMALL
bcc


@<TRIPOS>ATOM
      1 OAB          0.0000     0.0000     0.0000 oh         1 MRI      -0.485100
      2 CAM          1.3620     0.0000     0.0000 cc         1 MRI      -0.092100
      3 CAN          2.0750     0.0000     1.2240 c          1 MRI       0.563900
      4 OAD          1.4940     0.0010     2.2980 o          1 MRI      -0.523100
      5 CAI          3.5460    -0.0010     1.1520 ca         1 MRI      -0.269600
      6 CAO          4.3300    -0.0010     2.3130 ca         1 MRI       0.231100
      7 OAC          3.7410    -0.0000     3.5360 oh         1 MRI      -0.461100
      8 CAS          5.7070    -0.0030     2.2030 ca         1 MRI      -0.287000
      9 CAR          6.3090    -0.0030     0.9480 ca         1 MRI       0.196100
     10 OAF          7.6630    -0.0050     0.8530 oh         1 MRI      -0.516100
     11 CAP          5.5390    -0.0030    -0.2040 ca         1 MRI      -0.214000
     12 CAJ          4.1550    -0.0020    -0.1150 ca         1 MRI       0.203100
     13 OAA          3.3920    -0.0030    -1.2280 os         1 MRI      -0.185200
     14 CAK          2.0490    -0.0070    -1.1770 cd         1 MRI       0.181900
     15 CAL          1.2920    -0.0140    -2.4400 ca         1 MRI      -0.099800
     16 CAT          0.3630     0.9960    -2.7080 ca         1 MRI      -0.029000
     17 CAV         -0.3410     0.9860    -3.8910 ca         1 MRI      -0.195000
     18 CAW         -0.1330    -0.0260    -4.8220 ca         1 MRI       0.163100
     19 OAG         -0.8330    -0.0270    -5.9860 oh         1 MRI      -0.521100
     20 CAU          0.7860    -1.0330    -4.5670 ca         1 MRI      -0.251000
     21 CAQ          1.5040    -1.0310    -3.3840 ca         1 MRI       0.178100
     22 OAE          2.4080    -2.0130    -3.1350 oh         1 MRI      -0.488100
     23 H1          -0.3140    -0.7120     0.5320 ho         1 MRI       0.429000
     24 H2           4.2730     0.4910     4.1400 ho         1 MRI       0.424000
     25 H3           6.3210    -0.0180     3.0960 ha         1 MRI       0.150000
     26 H4           7.9850     0.8770     0.9320 ho         1 MRI       0.429000
     27 H5           6.0190    -0.0040    -1.1750 ha         1 MRI       0.162000
     28 H6           0.1980     1.7860    -1.9860 ha         1 MRI       0.157000
     29 H7          -1.0600     1.7700    -4.0960 ha         1 MRI       0.149000
     30 H8          -0.3750     0.4870    -6.6290 ho         1 MRI       0.426000
     31 H9           0.9460    -1.8170    -5.2960 ha         1 MRI       0.147000
     32 H10          2.1780    -2.7840    -3.6260 ho         1 MRI       0.428000
@<TRIPOS>BOND
     1     7     6 1
     2     4     3 2
     3     6     8 ar
     4     6     5 ar
     5     3     5 1
     6     3     2 1
     7     8     9 ar
     8     1     2 1
     9     5    12 ar
    10     2    14 2
    11     9    10 1
    12     9    11 ar
    13    12    11 ar
    14    12    13 1
    15    14    13 1
    16    14    15 1
    17    22    21 1
    18    15    21 ar
    19    15    16 ar
    20    21    20 ar
    21    16    17 ar
    22    20    18 ar
    23    17    18 ar
    24    18    19 1
    25     1    23 1
    26     7    24 1
    27     8    25 1
    28    10    26 1
    29    11    27 1
    30    16    28 1
    31    17    29 1
    32    19    30 1
    33    20    31 1
    34    22    32 1
@<TRIPOS>SUBSTRUCTURE
     1 MRI         1 TEMP              0 ****  ****    0 ROOT
