@<TRIPOS>MOLECULE
MRI
   32    34     1     0     0
SMALL
bcc


@<TRIPOS>ATOM
      1 OAB        -0.1010    0.2730    0.1860 oh        1 MRI     -0.495100
      2 CAM         1.2680    0.1250    0.1150 cc        1 MRI     -0.078100
      3 CAN         2.0300    0.1500    1.3790 c         1 MRI      0.585900
      4 OAD         1.4390    0.2780    2.4620 o         1 MRI     -0.543100
      5 CAI         3.4690    0.0050    1.2060 ca        1 MRI     -0.281600
      6 CAO         4.3740    0.0040    2.2950 ca        1 MRI      0.252100
      7 OAC         3.8370    0.1510    3.5430 oh        1 MRI     -0.452100
      8 CAS         5.7510   -0.1380    2.0980 ca        1 MRI     -0.354000
      9 CAR         6.2390   -0.2850    0.7880 ca        1 MRI      0.221100
     10 OAF         7.5770   -0.4300    0.5230 oh        1 MRI     -0.484100
     11 CAP         5.3840   -0.2910   -0.3190 ca        1 MRI     -0.233000
     12 CAJ         4.0070   -0.1450   -0.0880 ca        1 MRI      0.221100
     13 OAA         3.2400   -0.1530   -1.2320 os        1 MRI     -0.188200
     14 CAK         1.8590   -0.0370   -1.1010 cd        1 MRI      0.155900
     15 CAL         1.1980   -0.0960   -2.3980 ca        1 MRI     -0.121800
     16 CAT         0.0440    0.6660   -2.6310 ca        1 MRI     -0.015000
     17 CAV        -0.6090    0.6300   -3.8570 ca        1 MRI     -0.257000
     18 CAW        -0.1050   -0.1850   -4.8830 ca        1 MRI      0.181100
     19 OAG        -0.6950   -0.2700   -6.1190 oh        1 MRI     -0.493100
     20 CAU         1.0430   -0.9650   -4.6870 ca        1 MRI     -0.261000
     21 CAQ         1.6850   -0.9150   -3.4430 ca        1 MRI      0.196100
     22 OAE         2.8040   -1.6650   -3.1880 oh        1 MRI     -0.477100
     23 H1         -0.3410    0.2430    1.1290 ho        1 MRI      0.444000
     24 H2          4.5610    0.1320    4.1900 ho        1 MRI      0.423000
     25 H3          6.4400   -0.1360    2.9520 ha        1 MRI      0.143000
     26 H4          8.0570   -0.4110    1.3650 ho        1 MRI      0.427000
     27 H5          5.7740   -0.4090   -1.3380 ha        1 MRI      0.177000
     28 H6         -0.3530    1.2990   -1.8190 ha        1 MRI      0.163000
     29 H7         -1.5120    1.2330   -4.0210 ha        1 MRI      0.141000
     30 H8         -1.4740    0.3070   -6.1200 ho        1 MRI      0.425000
     31 H9          1.4210   -1.6000   -5.4990 ha        1 MRI      0.156000
     32 H10         3.0150   -2.1740   -3.9860 ho        1 MRI      0.423000
@<TRIPOS>BOND
     1    1    2 1   
     2    1   23 1   
     3    2    3 1   
     4    2   14 2   
     5    3    4 2   
     6    3    5 1   
     7    5    6 ar  
     8    5   12 ar  
     9    6    7 1   
    10    6    8 ar  
    11    7   24 1   
    12    8    9 ar  
    13    8   25 1   
    14    9   10 1   
    15    9   11 ar  
    16   10   26 1   
    17   11   12 ar  
    18   11   27 1   
    19   12   13 1   
    20   13   14 1   
    21   14   15 1   
    22   15   16 ar  
    23   15   21 ar  
    24   16   17 ar  
    25   16   28 1   
    26   17   18 ar  
    27   17   29 1   
    28   18   19 1   
    29   18   20 ar  
    30   19   30 1   
    31   20   21 ar  
    32   20   31 1   
    33   21   22 1   
    34   22   32 1   
@<TRIPOS>SUBSTRUCTURE
     1 MRI         1 TEMP              0 ****  ****    0 ROOT
