@<TRIPOS>MOLECULE
molecule
   35    37     1     0     0
SMALL
bcc


@<TRIPOS>ATOM
      1 S1           0.0000     0.0000     0.0000 ss         1 MRK      -0.311300
      2 C2           1.7870     0.0000     0.0000 cc         1 MRK      -0.171400
      3 C3           2.0390     0.0000     1.3320 cd         1 MRK       0.390200
      4 N4           1.0160     0.0080     2.1640 nd         1 MRK      -0.726000
      5 C5          -0.2260     0.0020     1.7220 cc         1 MRK       0.617300
      6 N6          -1.4110     0.0020     2.4460 ns         1 MRK      -0.520400
      7 C7          -1.3780     0.0050     3.7930 c          1 MRK       0.669700
      8 O8          -0.3100     0.0050     4.3740 o          1 MRK      -0.514100
      9 C9          -2.6060     0.1290     5.9590 ca         1 MRK       0.290600
     10 C10         -2.6340     0.0050     4.5610 ca         1 MRK      -0.201600
     11 C11         -3.8590    -0.1160     3.9000 ca         1 MRK      -0.020000
     12 C12         -5.0360    -0.1150     4.6280 ca         1 MRK      -0.058100
     13 C13         -5.0010     0.0130     6.0150 ca         1 MRK       0.225900
     14 F14         -6.1550     0.0140     6.7200 f          1 MRK      -0.118900
     15 C15         -3.7940     0.1290     6.6750 ca         1 MRK      -0.211000
     16 S16         -6.5820    -0.2670     3.7980 ss         1 MRK      -0.229200
     17 N17         -8.1480    -2.5690     3.8970 na         1 MRK      -0.172900
     18 C18         -6.9820    -1.9350     4.1980 cc         1 MRK       0.492800
     19 N19         -6.2070    -2.7760     4.8430 nd         1 MRK      -0.695000
     20 C20         -6.8380    -3.9560     4.9650 cd         1 MRK       0.319200
     21 C21         -8.0460    -3.8510     4.3850 cc         1 MRK      -0.267600
     22 N23         -1.3900     0.2510     6.6240 nv         1 MRK      -0.976200
     23 H2           2.4780    -0.0030    -0.8340 h4         1 MRK       0.196000
     24 H3           3.0560     0.0020     1.7030 h4         1 MRK       0.042100
     25 HN6         -2.2900     0.0160     1.9670 hn         1 MRK       0.339500
     26 H11         -3.8880    -0.2160     2.8220 ha         1 MRK       0.139000
     27 H15         -3.7740     0.2260     7.7540 ha         1 MRK       0.162000
     28 H20         -6.4420    -4.8390     5.4500 h4         1 MRK       0.043100
     29 H21         -8.7970    -4.6290     4.3160 h4         1 MRK       0.175000
     30 H221        -8.9390    -1.4250     2.3330 h1         1 MRK       0.056700
     31 H222        -9.8460    -1.3470     3.8500 h1         1 MRK       0.056700
     32 H223        -9.9390    -2.7950     2.8380 h1         1 MRK       0.056700
     33 H231        -0.9930     1.1560     6.7800 hn         1 MRK       0.445800
     34 H232        -0.9320    -0.5640     6.9830 hn         1 MRK       0.445800
     35 C22         -9.2920    -1.9970     3.1830 c3         1 MRK       0.031600
@<TRIPOS>BOND
     1     1     2 1
     2     1     5 1
     3     2     3 2
     4     2    23 1
     5     3     4 1
     6     3    24 1
     7     4     5 2
     8     5     6 1
     9     6     7 1
    10     6    25 1
    11     7     8 2
    12     7    10 1
    13     9    10 ar
    14     9    15 ar
    15     9    22 1
    16    10    11 ar
    17    11    12 ar
    18    11    26 1
    19    12    13 ar
    20    12    16 1
    21    13    14 1
    22    13    15 ar
    23    15    27 1
    24    16    18 1
    25    17    18 1
    26    17    21 1
    27    17    35 1
    28    18    19 2
    29    19    20 1
    30    20    21 2
    31    20    28 1
    32    21    29 1
    33    35    30 1
    34    35    31 1
    35    35    32 1
    36    22    33 1
    37    22    34 1
@<TRIPOS>SUBSTRUCTURE
     1 MRK         1 TEMP              0 ****  ****    0 ROOT
