@<TRIPOS>MOLECULE
MRM
   21    21     1     0     0
SMALL
bcc


@<TRIPOS>ATOM
      1 NB         -0.0260   -0.0730    0.0440 n3        1 MRM     -0.910800
      2 CM1         1.4310   -0.0400    0.0230 c3        1 MRM      0.164500
      3 CM2         2.0340   -0.0010    1.4330 c3        1 MRM     -0.101400
      4 CM5         2.0300   -1.2370   -0.7270 c3        1 MRM     -0.101400
      5 CM3         3.5630    0.0780    1.3440 c3        1 MRM      0.089000
      6 NM          4.1940   -0.9140    0.5180 n         1 MRM     -0.495800
      7 CM4         3.5600   -1.1230   -0.7530 c3        1 MRM      0.089000
      8 C           4.7910   -2.0770    1.1840 c         1 MRM      0.996600
      9 O           5.0530   -1.9770    2.4190 o         1 MRM     -0.835300
     10 OXT         5.0500   -3.0920    0.4720 o         1 MRM     -0.835300
     11 HNB1       -0.3770   -0.0740   -0.8930 hn        1 MRM      0.329800
     12 HNB2       -0.3750    0.7350    0.5190 hn        1 MRM      0.329800
     13 HM1         1.7910    0.8970   -0.5140 h1        1 MRM     -0.006300
     14 HM21        1.7340   -0.9180    2.0010 hc        1 MRM      0.035700
     15 HM22        1.6560    0.8930    1.9920 hc        1 MRM      0.035700
     16 HM51        1.6500   -1.2670   -1.7790 hc        1 MRM      0.035700
     17 HM52        1.7300   -2.1910   -0.2230 hc        1 MRM      0.035700
     18 HM31        3.9890   -0.0010    2.3860 h1        1 MRM      0.036200
     19 HM32        3.8260    1.0970    0.9310 h1        1 MRM      0.036200
     20 HM41        3.8220   -0.2510   -1.4230 h1        1 MRM      0.036200
     21 HM42        3.9830   -2.0620   -1.2130 h1        1 MRM      0.036200
@<TRIPOS>BOND
     1    1    2 1
     2    1   11 1
     3    1   12 1
     4    2    3 1
     5    2    4 1
     6    2   13 1
     7    3    5 1
     8    3   14 1
     9    3   15 1
    10    4    7 1
    11    4   16 1
    12    4   17 1
    13    5    6 1
    14    5   18 1
    15    5   19 1
    16    6    7 1
    17    6    8 1
    18    7   20 1
    19    7   21 1
    20    8    9 1
    21    8   10 1
@<TRIPOS>SUBSTRUCTURE
     1 MRM         1 TEMP              0 ****  ****    0 ROOT
