@<TRIPOS>MOLECULE
MRN
   39    40     1     0     0
SMALL
bcc


@<TRIPOS>ATOM
      1 N            0.0000     0.0000     0.0000 ns         1 MRN      -0.044100
      2 O1           1.9550     0.1080     1.0470 o          1 MRN      -0.631100
      3 C2           3.4780    -0.0040    -1.2930 ca         1 MRN      -0.007300
      4 O2          -0.4290    -1.4050     4.5600 os         1 MRN      -0.297900
      5 C3           2.0880    -0.1300    -1.2730 ca         1 MRN      -0.169600
      6 C4           1.3990    -0.3790    -2.4610 ca         1 MRN      -0.078000
      7 C5           2.0950    -0.5000    -3.6460 ca         1 MRN      -0.120000
      8 C6           3.4730    -0.3750    -3.6590 ca         1 MRN      -0.069000
      9 C7           4.1610    -0.1220    -2.4860 ca         1 MRN      -0.119000
     10 C8           1.3480     0.0000     0.0000 c          1 MRN       0.588700
     11 C9          -0.7000     0.0000     1.2100 ca         1 MRN      -0.048400
     12 C10         -0.2090    -0.7120     2.2960 ca         1 MRN      -0.138000
     13 C11         -0.9060    -0.7080     3.4950 ca         1 MRN       0.172100
     14 C12         -2.0900     0.0070     3.6070 ca         1 MRN      -0.231000
     15 C13         -2.5760     0.7160     2.5240 ca         1 MRN      -0.039000
     16 C14         -1.8830     0.7190     1.3290 ca         1 MRN      -0.179000
     17 C15         -1.1280    -1.2570     5.7970 c3         1 MRN       0.163100
     18 C16         -2.3210    -2.2150     5.8280 c3         1 MRN      -0.017100
     19 C17         -0.1840    -1.5810     6.9580 c3         1 MRN      -0.017100
     20 HN          -0.5000     0.0120    -0.8670 hn         1 MRN       0.173500
     21 H1           4.0730    -0.5550     0.6760 hc         1 MRN       0.022700
     22 H1A          3.8680     1.1840     0.4300 hc         1 MRN       0.022700
     23 H1B          5.2870     0.3590    -0.2300 hc         1 MRN       0.022700
     24 H4           0.3200    -0.4780    -2.4530 ha         1 MRN       0.099000
     25 H5           1.5620    -0.6960    -4.5690 ha         1 MRN       0.105000
     26 H6           4.0150    -0.4690    -4.5920 ha         1 MRN       0.102000
     27 H7           5.2400    -0.0240    -2.5020 ha         1 MRN       0.112000
     28 H10          0.6680    -1.3380     2.1830 ha         1 MRN       0.143000
     29 H12         -2.6360     0.0070     4.5430 ha         1 MRN       0.125000
     30 H13         -3.4990     1.2750     2.6150 ha         1 MRN       0.099000
     31 H14         -2.2660     1.2750     0.4820 ha         1 MRN       0.107000
     32 H15         -1.4810    -0.2370     5.8930 h1         1 MRN       0.020700
     33 H16         -2.1770    -2.9460     6.6140 hc         1 MRN       0.013367
     34 H16A        -2.4020    -2.7220     4.8740 hc         1 MRN       0.013367
     35 H16B        -3.2290    -1.6550     6.0170 hc         1 MRN       0.013367
     36 H17          0.6580    -0.9010     6.9400 hc         1 MRN       0.013367
     37 H17A        -0.7150    -1.4730     7.8960 hc         1 MRN       0.013367
     38 H17B         0.1720    -2.6000     6.8600 hc         1 MRN       0.013367
     39 C1           4.2290     0.2650    -0.0140 c3         1 MRN       0.047200
@<TRIPOS>BOND
     1     1    10 1   
     2     1    11 1   
     3     1    20 1   
     4     2    10 2   
     5     3     5 ar  
     6     3     9 ar  
     7     3    39 1   
     8     4    13 1   
     9     4    17 1   
    10     5     6 ar  
    11     5    10 1   
    12     6     7 ar  
    13     6    24 1   
    14     7     8 ar  
    15     7    25 1   
    16     8     9 ar  
    17     8    26 1   
    18     9    27 1   
    19    11    12 ar  
    20    11    16 ar  
    21    12    13 ar  
    22    12    28 1   
    23    13    14 ar  
    24    14    15 ar  
    25    14    29 1   
    26    15    16 ar  
    27    15    30 1   
    28    16    31 1   
    29    17    18 1   
    30    17    19 1   
    31    17    32 1   
    32    18    33 1   
    33    18    34 1   
    34    18    35 1   
    35    19    36 1   
    36    19    37 1   
    37    19    38 1   
    38    21    39 1   
    39    22    39 1   
    40    23    39 1   
@<TRIPOS>SUBSTRUCTURE
     1 MRN         1 TEMP              0 ****  ****    0 ROOT
