@<TRIPOS>MOLECULE
molecule
   30    31     1     0     0
SMALL
bcc


@<TRIPOS>ATOM
      1 OAA          0.0000     0.0000     0.0000 o          1 MRO      -0.805800
      2 CAN          1.2130     0.0000     0.0000 c          1 MRO       0.879800
      3 OAD          1.8870     0.0000     1.1660 o          1 MRO      -0.805800
      4 CAQ          1.9540    -0.0060    -1.2850 cc         1 MRO       0.041400
      5 NAL          3.3270     0.1190    -1.2960 ns         1 MRO      -0.428100
      6 CAR          4.0160     0.1160    -2.4490 c          1 MRO       0.798500
      7 OAB          5.2260     0.2290    -2.4160 o          1 MRO      -0.705500
      8 NAM          3.4030    -0.0080    -3.6400 ns         1 MRO      -0.568500
      9 CAS          2.0610    -0.1350    -3.7070 c          1 MRO       0.701700
     10 OAC          1.5040    -0.2480    -4.7820 o          1 MRO      -0.660500
     11 CAP          1.2870    -0.1400    -2.4600 cd         1 MRO      -0.281400
     12 CAK         -0.2140    -0.2800    -2.4840 c3         1 MRO      -0.003200
     13 CAJ         -0.8530     1.1040    -2.6150 c3         1 MRO      -0.025100
     14 CAO         -2.3530     0.9640    -2.6390 ca         1 MRO      -0.043300
     15 CAH         -3.0130     0.7950    -3.8430 ca         1 MRO      -0.114000
     16 CAF         -4.3890     0.6670    -3.8650 ca         1 MRO      -0.150500
     17 CAE         -5.1050     0.7090    -2.6840 ca         1 MRO      -0.152000
     18 CAG         -4.4460     0.8770    -1.4810 ca         1 MRO      -0.150500
     19 CAI         -3.0700     1.0010    -1.4580 ca         1 MRO      -0.114000
     20 H2           3.9460    -0.0070    -4.4810 hn         1 MRO       0.340500
     21 H4          -0.5060    -0.8940    -3.3280 hc         1 MRO       0.075200
     22 H5          -0.5480    -0.7470    -1.5660 hc         1 MRO       0.075200
     23 H6          -0.5190     1.5710    -3.5340 hc         1 MRO       0.050200
     24 H7          -0.5610     1.7180    -1.7710 hc         1 MRO       0.050200
     25 H8          -2.4530     0.7830    -4.7700 ha         1 MRO       0.140500
     26 H9          -4.9080     0.5750    -4.8110 ha         1 MRO       0.114500
     27 H10         -6.1840     0.6090    -2.7010 ha         1 MRO       0.108000
     28 H11         -5.0090     0.9100    -0.5560 ha         1 MRO       0.114500
     29 H12         -2.8460     1.2950    -0.4400 ha         1 MRO       0.140500
     30 H13          3.8190     0.2150    -0.4300 hn         1 MRO       0.377500
@<TRIPOS>BOND
     1    16    15 ar
     2    16    17 ar
     3    15    14 ar
     4    17    18 ar
     5    14    13 1
     6    14    19 ar
     7    13    12 1
     8    18    19 ar
     9    12    11 1
    10    10     9 2
    11    11     9 1
    12    11     4 2
    13     9     8 1
    14     4     2 1
    15     4     5 1
    16     2     1 1
    17     2     3 1
    18     8     6 1
    19     5     6 1
    20     6     7 2
    21     8    20 1
    22    12    21 1
    23    12    22 1
    24    13    23 1
    25    13    24 1
    26    15    25 1
    27    16    26 1
    28    17    27 1
    29    18    28 1
    30    19    29 1
    31     5    30 1
@<TRIPOS>SUBSTRUCTURE
     1 MRO         1 TEMP              0 ****  ****    0 ROOT
