@<TRIPOS>MOLECULE
molecule
   26    25     1     0     0
SMALL
bcc


@<TRIPOS>ATOM
      1 O3P          0.0000     0.0000     0.0000 o          1 MRU      -0.905167
      2 P1           1.5010     0.0000     0.0000 p5         1 MRU       1.162900
      3 O1P          2.1920     0.0000     1.4620 o          1 MRU      -0.905167
      4 O2P          2.1840    -1.2680    -0.7340 o          1 MRU      -0.905167
      5 O1           2.1840     1.2670    -0.7460 os         1 MRU      -0.552200
      6 C1           3.5940     1.3450    -0.7920 c3         1 MRU       0.142400
      7 C2           4.0320     2.5960    -1.5290 c          1 MRU       0.510100
      8 O2           3.2060     3.3760    -2.0070 o          1 MRU      -0.511100
      9 C3           5.5370     2.8310    -1.6690 c3         1 MRU       0.020100
     10 O3           5.6930     4.1010    -2.2910 oh         1 MRU      -0.592800
     11 C4           6.2190     1.7330    -2.4990 c3         1 MRU       0.150100
     12 O4           7.6280     1.9710    -2.5030 oh         1 MRU      -0.611800
     13 C5           5.7300     1.5950    -3.9480 c3         1 MRU       0.040700
     14 S1           6.6130     0.3150    -4.9000 ss         1 MRU      -0.406200
     15 C6           6.1140    -1.1200    -3.9230 c3         1 MRU       0.002000
     16 H11          3.9840     1.3710     0.2190 h1         1 MRU       0.049700
     17 H12          3.9850     0.4740    -1.3040 h1         1 MRU       0.049700
     18 H3           5.9850     2.8610    -0.6830 h1         1 MRU       0.043700
     19 HO3          5.9850     4.7300    -1.6520 ho         1 MRU       0.387000
     20 H4           6.0440     0.7870    -2.0010 h1         1 MRU       0.057700
     21 HO4          8.0270     1.5060    -1.7870 ho         1 MRU       0.390000
     22 H51          5.8580     2.5470    -4.4480 h1         1 MRU       0.091700
     23 H52          4.6750     1.3490    -3.9350 h1         1 MRU       0.091700
     24 H61          5.0650    -1.0350    -3.6660 h1         1 MRU       0.066700
     25 H62          6.7050    -1.1630    -3.0170 h1         1 MRU       0.066700
     26 H63          6.2720    -2.0230    -4.5010 h1         1 MRU       0.066700
@<TRIPOS>BOND
     1     1     2 1
     2     2     3 1
     3     2     4 1
     4     2     5 1
     5     5     6 1
     6     6     7 1
     7     6    16 1
     8     6    17 1
     9     7     9 1
    10     7     8 2
    11     9    10 1
    12     9    11 1
    13     9    18 1
    14    10    19 1
    15    11    12 1
    16    11    13 1
    17    11    20 1
    18    12    21 1
    19    13    14 1
    20    13    22 1
    21    13    23 1
    22    14    15 1
    23    15    24 1
    24    15    25 1
    25    15    26 1
@<TRIPOS>SUBSTRUCTURE
     1 MRU         1 TEMP              0 ****  ****    0 ROOT
