@<TRIPOS>MOLECULE
MRU
   26    25     1     0     0
SMALL
bcc


@<TRIPOS>ATOM
      1 O3P         2.3320   -0.9630    0.4170 o         1 MRU     -0.917167
      2 P1          3.5960   -0.4070   -0.1580 p5        1 MRU      1.314900
      3 O1P         4.4790    0.3900    0.7670 o         1 MRU     -0.917167
      4 O2P         4.3360   -1.2150   -1.1940 o         1 MRU     -0.917167
      5 O1          3.0630    0.8750   -1.2230 os        1 MRU     -0.557200
      6 C1          3.1020    2.1370   -0.7070 c3        1 MRU      0.142400
      7 C2          4.2060    2.9870   -1.3180 c         1 MRU      0.537100
      8 O2          3.9950    4.1270   -1.7760 o         1 MRU     -0.656100
      9 C3          5.6320    2.4720   -1.2800 c3        1 MRU     -0.004900
     10 O3          6.5590    3.5300   -1.5210 oh        1 MRU     -0.635800
     11 C4          5.8990    1.3170   -2.2720 c3        1 MRU      0.100100
     12 O4          7.2940    1.1770   -2.4630 oh        1 MRU     -0.588800
     13 C5          5.1510    1.5540   -3.5730 c3        1 MRU     -0.010300
     14 S1          5.4630    0.4330   -4.9180 ss        1 MRU     -0.426200
     15 C6          5.0160   -1.1590   -4.3090 c3        1 MRU     -0.039000
     16 H11         3.2970    2.1240    0.4080 h1        1 MRU      0.026200
     17 H12         2.1260    2.6690   -0.9190 h1        1 MRU      0.026200
     18 H3          5.8570    2.0950   -0.2340 h1        1 MRU      0.161700
     19 HO3         6.1660    4.0990   -2.1950 ho        1 MRU      0.391000
     20 H4          5.5430    0.3350   -1.7850 h1        1 MRU      0.205700
     21 HO4         7.6350    2.0460   -2.7100 ho        1 MRU      0.372000
     22 H51         4.0570    1.5120   -3.3230 h1        1 MRU      0.072200
     23 H52         5.4040    2.5550   -3.9980 h1        1 MRU      0.072200
     24 H61         4.1290   -1.5240   -4.8710 h1        1 MRU      0.083033
     25 H62         4.7670   -1.1450   -3.2050 h1        1 MRU      0.083033
     26 H63         5.8700   -1.8490   -4.4720 h1        1 MRU      0.083033
@<TRIPOS>BOND
     1    1    2 1   
     2    2    3 1   
     3    2    4 1   
     4    2    5 1   
     5    5    6 1   
     6    6    7 1   
     7    6   16 1   
     8    6   17 1   
     9    7    8 2   
    10    7    9 1   
    11    9   10 1   
    12    9   11 1   
    13    9   18 1   
    14   10   19 1   
    15   11   12 1   
    16   11   13 1   
    17   11   20 1   
    18   12   21 1   
    19   13   14 1   
    20   13   22 1   
    21   13   23 1   
    22   14   15 1   
    23   15   24 1   
    24   15   25 1   
    25   15   26 1   
@<TRIPOS>SUBSTRUCTURE
     1 MRU         1 TEMP              0 ****  ****    0 ROOT
