@<TRIPOS>MOLECULE
MRV
   78    82     1     0     0
SMALL
bcc


@<TRIPOS>ATOM
      1 F1           0.0000     0.0000     0.0000 f          1 MRV      -0.220800
      2 O1           4.3130     1.9840     0.9540 o          1 MRV      -0.631100
      3 C1          11.4070    -0.6020    -3.3710 c3         1 MRV      -0.076000
      4 N1          12.6360    -0.4740    -4.1590 na         1 MRV       0.159300
      5 C12          7.3720     2.2950    -1.7870 c3         1 MRV      -0.044400
      6 C13          6.1210     2.5810    -0.9530 c3         1 MRV       0.082000
      7 C15          5.3960     3.7710    -1.5280 ca         1 MRV      -0.110300
      8 C16          4.3670     1.2040     0.0280 c          1 MRV       0.580100
      9 C17          3.4600     0.0000     0.0000 c3         1 MRV      -0.127700
     10 C18          0.7720    -1.1660    -0.0260 c3         1 MRV       0.374600
     11 C19         13.9720     2.7250    -3.2740 c3         1 MRV       0.007900
     12 F2          -0.0710    -2.2830    -0.0510 f          1 MRV      -0.220800
     13 N2           9.3740     0.8940    -1.9330 n3         1 MRV      -0.532600
     14 C2           9.0310     0.1360    -3.1670 c3         1 MRV       0.135000
     15 C20         12.6150     2.8950    -5.3640 c3         1 MRV       0.007900
     16 C21          2.5770     0.0000     1.2500 c3         1 MRV      -0.011900
     17 C22          2.5770     0.0550    -1.2480 c3         1 MRV      -0.011900
     18 C23          1.6550    -1.2210     1.2220 c3         1 MRV      -0.071900
     19 C24          1.6550    -1.1650    -1.2760 c3         1 MRV      -0.071900
     20 C25          4.5760     3.6150    -2.6300 ca         1 MRV      -0.086500
     21 C26          5.5450     5.0170    -0.9490 ca         1 MRV      -0.086500
     22 C27          3.9110     4.7060    -3.1570 ca         1 MRV      -0.097000
     23 C28          4.8800     6.1080    -1.4760 ca         1 MRV      -0.097000
     24 C29          4.0640     5.9530    -2.5810 ca         1 MRV      -0.095000
     25 C3          10.2980    -0.0220    -1.2120 c3         1 MRV       0.135000
     26 N3          14.3270     0.3460    -5.1900 nc         1 MRV      -0.324000
     27 C4          13.2790     0.6740    -4.4830 cd         1 MRV       0.172800
     28 N4          14.3760    -0.9320    -5.3210 nc         1 MRV      -0.327000
     29 N5           5.2390     1.4120    -0.9790 ns         1 MRV      -0.202900
     30 C5          10.2740     0.1530    -4.0720 c3         1 MRV      -0.047400
     31 C6          11.6320    -0.0170    -1.9750 c3         1 MRV      -0.047400
     32 C7          13.3630    -1.4780    -4.7050 cd         1 MRV       0.156800
     33 C8           8.8230    -1.3140    -2.6770 c3         1 MRV      -0.063400
     34 C9           9.6590    -1.4190    -1.3850 c3         1 MRV      -0.063400
     35 H1          11.1420    -1.6490    -3.2850 h1         1 MRV       0.063700
     36 H2           7.5630     0.2750    -1.0790 h1         1 MRV       0.017200
     37 H3           8.4660     1.4670    -0.1330 h1         1 MRV       0.017200
     38 H4          11.9530     2.0280    -3.5130 hc         1 MRV       0.042700
     39 H5           7.0800     1.9980    -2.7870 hc         1 MRV       0.033700
     40 H6           7.9830     3.1890    -1.8400 hc         1 MRV       0.033700
     41 H7           6.4100     2.7930     0.0690 h1         1 MRV       0.063700
     42 H8          13.0500    -3.2580    -3.5800 hc         1 MRV       0.012700
     43 H9          12.0880    -3.1450    -5.0600 hc         1 MRV       0.012700
     44 H10         13.8160    -3.5090    -5.1540 hc         1 MRV       0.012700
     45 H11          4.0530    -0.9060    -0.0200 hc         1 MRV       0.037700
     46 H12         13.5580     3.5410    -2.6940 hc         1 MRV       0.010033
     47 H13         14.7350     3.1070    -3.9410 hc         1 MRV       0.010033
     48 H14         14.4100     1.9930    -2.6060 hc         1 MRV       0.010033
     49 H16          8.1530     0.5330    -3.6620 h1         1 MRV       0.050700
     50 H17         11.9820     3.7420    -5.1250 hc         1 MRV       0.010033
     51 H18         12.1300     2.2830    -6.1140 hc         1 MRV       0.010033
     52 H19         13.5640     3.2510    -5.7460 hc         1 MRV       0.010033
     53 H20          1.9780     0.9030     1.2670 hc         1 MRV       0.035950
     54 H21          3.2030    -0.0420     2.1330 hc         1 MRV       0.035950
     55 H22          3.2030     0.0530    -2.1320 hc         1 MRV       0.035950
     56 H23          1.9780     0.9580    -1.2260 hc         1 MRV       0.035950
     57 H24          1.0290    -1.2200     2.1060 hc         1 MRV       0.039200
     58 H25          2.2540    -2.1240     1.1990 hc         1 MRV       0.039200
     59 H26          1.0290    -1.1230    -2.1590 hc         1 MRV       0.039200
     60 H27          2.2540    -2.0680    -1.2950 hc         1 MRV       0.039200
     61 H28          4.4560     2.6380    -3.0820 ha         1 MRV       0.103000
     62 H29          6.1840     5.1380    -0.0830 ha         1 MRV       0.103000
     63 H30          3.2710     4.5840    -4.0220 ha         1 MRV       0.104000
     64 H31          4.9980     7.0850    -1.0230 ha         1 MRV       0.104000
     65 H32          3.5430     6.8080    -2.9940 ha         1 MRV       0.103000
     66 H33         10.4160     0.2500    -0.1700 h1         1 MRV       0.050700
     67 H34          5.2830     0.7690    -1.7440 hn         1 MRV       0.175500
     68 H35         10.0430    -0.3300    -5.0140 hc         1 MRV       0.041950
     69 H36         10.5770     1.1770    -4.2540 hc         1 MRV       0.041950
     70 H37         11.9970     1.0000    -2.0610 hc         1 MRV       0.041950
     71 H38         12.3580    -0.6190    -1.4410 hc         1 MRV       0.041950
     72 H39          9.1830    -2.0180    -3.4170 hc         1 MRV       0.025950
     73 H40          7.7760    -1.4940    -2.4640 hc         1 MRV       0.025950
     74 H41         10.4280    -2.1740    -1.4930 hc         1 MRV       0.025950
     75 H42          9.0210    -1.6490    -0.5400 hc         1 MRV       0.025950
     76 C10          8.1740     1.1690    -1.1330 c3         1 MRV       0.142800
     77 C11         12.8630     2.0710    -4.1000 c3         1 MRV      -0.070000
     78 C14         13.0580    -2.9510    -4.6180 c3         1 MRV       0.014600
@<TRIPOS>BOND
     1     1    10 1   
     2     2     8 2   
     3     3     4 1   
     4     3    30 1   
     5     3    31 1   
     6     3    35 1   
     7     4    27 1   
     8     4    32 1   
     9     5     6 1   
    10     5    39 1   
    11     5    40 1   
    12     5    76 1   
    13     6     7 1   
    14     6    29 1   
    15     6    41 1   
    16     7    20 ar  
    17     7    21 ar  
    18     8     9 1   
    19     8    29 1   
    20     9    16 1   
    21     9    17 1   
    22     9    45 1   
    23    10    12 1   
    24    10    18 1   
    25    10    19 1   
    26    11    46 1   
    27    11    47 1   
    28    11    48 1   
    29    11    77 1   
    30    13    14 1   
    31    13    25 1   
    32    13    76 1   
    33    14    30 1   
    34    14    33 1   
    35    14    49 1   
    36    15    50 1   
    37    15    51 1   
    38    15    52 1   
    39    15    77 1   
    40    16    18 1   
    41    16    53 1   
    42    16    54 1   
    43    17    19 1   
    44    17    55 1   
    45    17    56 1   
    46    18    57 1   
    47    18    58 1   
    48    19    59 1   
    49    19    60 1   
    50    20    22 ar  
    51    20    61 1   
    52    21    23 ar  
    53    21    62 1   
    54    22    24 ar  
    55    22    63 1   
    56    23    24 ar  
    57    23    64 1   
    58    24    65 1   
    59    25    31 1   
    60    25    34 1   
    61    25    66 1   
    62    26    27 2   
    63    26    28 1   
    64    27    77 1   
    65    28    32 2   
    66    29    67 1   
    67    30    68 1   
    68    30    69 1   
    69    31    70 1   
    70    31    71 1   
    71    32    78 1   
    72    33    34 1   
    73    33    72 1   
    74    33    73 1   
    75    34    74 1   
    76    34    75 1   
    77    36    76 1   
    78    37    76 1   
    79    38    77 1   
    80    42    78 1   
    81    43    78 1   
    82    44    78 1   
@<TRIPOS>SUBSTRUCTURE
     1 MRV         1 TEMP              0 ****  ****    0 ROOT
