@<TRIPOS>MOLECULE
molecule
   78    82     1     0     0
SMALL
bcc


@<TRIPOS>ATOM
      1 F1           0.0000     0.0000     0.0000 f          1 MRV      -0.237300
      2 O1           4.3130     1.9840     0.9540 o          1 MRV      -0.595100
      3 C1          11.4070    -0.6020    -3.3710 c3         1 MRV       0.051000
      4 N1          12.6360    -0.4740    -4.1590 na         1 MRV      -0.318700
      5 C12          7.3720     2.2950    -1.7870 c3         1 MRV      -0.088400
      6 C13          6.1210     2.5810    -0.9530 c3         1 MRV       0.163000
      7 C15          5.3960     3.7710    -1.5280 ca         1 MRV      -0.100300
      8 C16          4.3670     1.2040     0.0280 c          1 MRV       0.663100
      9 C17          3.4600     0.0000     0.0000 c3         1 MRV      -0.150700
     10 C18          0.7720    -1.1660    -0.0260 c3         1 MRV       0.402600
     11 C19         13.9720     2.7250    -3.2740 c3         1 MRV      -0.083100
     12 F2          -0.0710    -2.2830    -0.0510 f          1 MRV      -0.237300
     13 N2           9.3740     0.8940    -1.9330 n3         1 MRV      -0.692600
     14 C2           9.0310     0.1360    -3.1670 c3         1 MRV       0.154000
     15 C20         12.6150     2.8950    -5.3640 c3         1 MRV      -0.083100
     16 C21          2.5770     0.0000     1.2500 c3         1 MRV      -0.067400
     17 C22          2.5770     0.0550    -1.2480 c3         1 MRV      -0.067400
     18 C23          1.6550    -1.2210     1.2220 c3         1 MRV      -0.121900
     19 C24          1.6550    -1.1650    -1.2760 c3         1 MRV      -0.121900
     20 C25          4.5760     3.6150    -2.6300 ca         1 MRV      -0.112500
     21 C26          5.5450     5.0170    -0.9490 ca         1 MRV      -0.112500
     22 C27          3.9110     4.7060    -3.1570 ca         1 MRV      -0.126500
     23 C28          4.8800     6.1080    -1.4760 ca         1 MRV      -0.126500
     24 C29          4.0640     5.9530    -2.5810 ca         1 MRV      -0.123000
     25 C3          10.2980    -0.0220    -1.2120 c3         1 MRV       0.154000
     26 N3          14.3270     0.3460    -5.1900 nc         1 MRV      -0.354000
     27 C4          13.2790     0.6740    -4.4830 cd         1 MRV       0.360800
     28 N4          14.3760    -0.9320    -5.3210 nd         1 MRV      -0.356000
     29 N5           5.2390     1.4120    -0.9790 ns         1 MRV      -0.584900
     30 C5          10.2740     0.1530    -4.0720 c3         1 MRV      -0.086900
     31 C6          11.6320    -0.0170    -1.9750 c3         1 MRV      -0.086900
     32 C7          13.3630    -1.4780    -4.7050 cc         1 MRV       0.346800
     33 C8           8.8230    -1.3140    -2.6770 c3         1 MRV      -0.118900
     34 C9           9.6590    -1.4190    -1.3850 c3         1 MRV      -0.118900
     35 H1          11.1420    -1.6490    -3.2850 h1         1 MRV       0.075700
     36 H2           7.5630     0.2750    -1.0790 h1         1 MRV       0.040700
     37 H3           8.4660     1.4670    -0.1330 h1         1 MRV       0.040700
     38 H4          11.9530     2.0280    -3.5130 hc         1 MRV       0.066700
     39 H5           7.0800     1.9980    -2.7870 hc         1 MRV       0.060700
     40 H6           7.9830     3.1890    -1.8400 hc         1 MRV       0.060700
     41 H7           6.4100     2.7930     0.0690 h1         1 MRV       0.087700
     42 H8          13.0500    -3.2580    -3.5800 hc         1 MRV       0.054033
     43 H9          12.0880    -3.1450    -5.0600 hc         1 MRV       0.054033
     44 H10         13.8160    -3.5090    -5.1540 hc         1 MRV       0.054033
     45 H11          4.0530    -0.9060    -0.0200 hc         1 MRV       0.062700
     46 H12         13.5580     3.5410    -2.6940 hc         1 MRV       0.043033
     47 H13         14.7350     3.1070    -3.9410 hc         1 MRV       0.043033
     48 H14         14.4100     1.9930    -2.6060 hc         1 MRV       0.043033
     49 H16          8.1530     0.5330    -3.6620 h1         1 MRV       0.079200
     50 H17         11.9820     3.7420    -5.1250 hc         1 MRV       0.043033
     51 H18         12.1300     2.2830    -6.1140 hc         1 MRV       0.043033
     52 H19         13.5640     3.2510    -5.7460 hc         1 MRV       0.043033
     53 H20          1.9780     0.9030     1.2670 hc         1 MRV       0.065450
     54 H21          3.2030    -0.0420     2.1330 hc         1 MRV       0.065450
     55 H22          3.2030     0.0530    -2.1320 hc         1 MRV       0.065450
     56 H23          1.9780     0.9580    -1.2260 hc         1 MRV       0.065450
     57 H24          1.0290    -1.2200     2.1060 hc         1 MRV       0.066950
     58 H25          2.2540    -2.1240     1.1990 hc         1 MRV       0.066950
     59 H26          1.0290    -1.1230    -2.1590 hc         1 MRV       0.066950
     60 H27          2.2540    -2.0680    -1.2950 hc         1 MRV       0.066950
     61 H28          4.4560     2.6380    -3.0820 ha         1 MRV       0.127500
     62 H29          6.1840     5.1380    -0.0830 ha         1 MRV       0.127500
     63 H30          3.2710     4.5840    -4.0220 ha         1 MRV       0.130500
     64 H31          4.9980     7.0850    -1.0230 ha         1 MRV       0.130500
     65 H32          3.5430     6.8080    -2.9940 ha         1 MRV       0.130000
     66 H33         10.4160     0.2500    -0.1700 h1         1 MRV       0.079200
     67 H34          5.2830     0.7690    -1.7440 hn         1 MRV       0.310500
     68 H35         10.0430    -0.3300    -5.0140 hc         1 MRV       0.066450
     69 H36         10.5770     1.1770    -4.2540 hc         1 MRV       0.066450
     70 H37         11.9970     1.0000    -2.0610 hc         1 MRV       0.066450
     71 H38         12.3580    -0.6190    -1.4410 hc         1 MRV       0.066450
     72 H39          9.1830    -2.0180    -3.4170 hc         1 MRV       0.050450
     73 H40          7.7760    -1.4940    -2.4640 hc         1 MRV       0.050450
     74 H41         10.4280    -2.1740    -1.4930 hc         1 MRV       0.050450
     75 H42          9.0210    -1.6490    -0.5400 hc         1 MRV       0.050450
     76 C10          8.1740     1.1690    -1.1330 c3         1 MRV       0.147800
     77 C11         12.8630     2.0710    -4.1000 c3         1 MRV      -0.096000
     78 C14         13.0580    -2.9510    -4.6180 c3         1 MRV      -0.103400
@<TRIPOS>BOND
     1    12    10 1
     2     1    10 1
     3    10    18 1
     4    10    19 1
     5    18    16 1
     6    16     9 1
     7    19    17 1
     8    78    32 1
     9    17     9 1
    10     9     8 1
    11    33    14 1
    12    33    34 1
    13     2     8 2
    14    32    28 2
    15    32     4 1
    16    30    14 1
    17    30     3 1
    18     8    29 1
    19    14    13 1
    20    28    26 1
    21     4     3 1
    22     4    27 1
    23     3    31 1
    24    34    25 1
    25    26    27 2
    26    29     6 1
    27     5    76 1
    28     5     6 1
    29    27    77 1
    30    13    76 1
    31    13    25 1
    32     6     7 1
    33    25    31 1
    34    11    77 1
    35    77    15 1
    36     7    21 ar
    37     7    20 ar
    38    21    23 ar
    39    20    22 ar
    40    23    24 ar
    41    22    24 ar
    42     3    35 1
    43    76    36 1
    44    76    37 1
    45    77    38 1
    46     5    39 1
    47     5    40 1
    48     6    41 1
    49    78    42 1
    50    78    43 1
    51    78    44 1
    52     9    45 1
    53    11    46 1
    54    11    47 1
    55    11    48 1
    56    14    49 1
    57    15    50 1
    58    15    51 1
    59    15    52 1
    60    16    53 1
    61    16    54 1
    62    17    55 1
    63    17    56 1
    64    18    57 1
    65    18    58 1
    66    19    59 1
    67    19    60 1
    68    20    61 1
    69    21    62 1
    70    22    63 1
    71    23    64 1
    72    24    65 1
    73    25    66 1
    74    29    67 1
    75    30    68 1
    76    30    69 1
    77    31    70 1
    78    31    71 1
    79    33    72 1
    80    33    73 1
    81    34    74 1
    82    34    75 1
@<TRIPOS>SUBSTRUCTURE
     1 MRV         1 TEMP              0 ****  ****    0 ROOT
