@<TRIPOS>MOLECULE
MRW
   18    19     1     0     0
SMALL
bcc


@<TRIPOS>ATOM
      1 O1         -0.0170    0.1380   -0.1100 oh        1 MRW     -0.489100
      2 C2          1.3500    0.1080   -0.0090 ca        1 MRW      0.180100
      3 C3          2.0280    0.1250    1.1950 ca        1 MRW     -0.355300
      4 C4          3.4540    0.0900    1.1540 ca        1 MRW      0.450200
      5 N5          4.1760    0.0420    0.0490 nb        1 MRW     -0.678000
      6 C6          3.5030    0.0250   -1.1610 ca        1 MRW      0.424600
      7 C7          4.2510   -0.0260   -2.3810 ca        1 MRW     -0.174300
      8 C8          3.5910   -0.0440   -3.5890 ca        1 MRW      0.035400
      9 CL9         4.4800   -0.1040   -5.0380 cl        1 MRW     -0.087400
     10 C10         2.1760   -0.0120   -3.6630 ca        1 MRW     -0.137000
     11 C11         1.4370    0.0370   -2.5070 ca        1 MRW     -0.077000
     12 C12         2.0770    0.0570   -1.2440 ca        1 MRW     -0.168300
     13 H1         -0.3840    0.1710    0.7870 ho        1 MRW      0.429000
     14 H2          1.5080    0.1640    2.1580 ha        1 MRW      0.147000
     15 H3          4.0200    0.1020    2.1050 h4        1 MRW      0.025100
     16 H4          5.3520   -0.0510   -2.3310 ha        1 MRW      0.167000
     17 H5          1.6830   -0.0270   -4.6470 ha        1 MRW      0.152000
     18 H6          0.3360    0.0630   -2.5370 ha        1 MRW      0.155000
@<TRIPOS>BOND
     1    1    2 1   
     2    1   13 1   
     3    2    3 ar  
     4    2   12 ar  
     5    3    4 ar  
     6    3   14 1   
     7    4    5 ar  
     8    4   15 1   
     9    5    6 ar  
    10    6    7 ar  
    11    6   12 ar  
    12    7    8 ar  
    13    7   16 1   
    14    8    9 1   
    15    8   10 ar  
    16   10   11 ar  
    17   10   17 1   
    18   11   12 ar  
    19   11   18 1   
@<TRIPOS>SUBSTRUCTURE
     1 MRW         1 TEMP              0 ****  ****    0 ROOT
