@<TRIPOS>MOLECULE
molecule
   18    19     1     0     0
SMALL
bcc


@<TRIPOS>ATOM
      1 O1           0.0000     0.0000     0.0000 oh         1 MRW      -0.508100
      2 C2           1.3560     0.0000     0.0000 ca         1 MRW       0.166100
      3 C3           2.0690     0.0000     1.1860 ca         1 MRW      -0.315300
      4 C4           3.4570    -0.0010     1.1540 ca         1 MRW       0.456200
      5 N5           4.1240    -0.0020     0.0250 nb         1 MRW      -0.691000
      6 C6           3.4990    -0.0020    -1.1580 ca         1 MRW       0.442600
      7 C7           4.2270    -0.0010    -2.3610 ca         1 MRW      -0.167300
      8 C8           3.5650    -0.0020    -3.5510 ca         1 MRW       0.046400
      9 Cl9          4.4700    -0.0020    -5.0320 cl         1 MRW      -0.102400
     10 C10          2.1720    -0.0020    -3.5990 ca         1 MRW      -0.133000
     11 C11          1.4340    -0.0010    -2.4530 ca         1 MRW      -0.083000
     12 C12          2.0850    -0.0070    -1.2100 ca         1 MRW      -0.177300
     13 H1          -0.3140    -0.7780     0.4310 ho         1 MRW       0.430000
     14 H2           1.5460     0.0010     2.1350 ha         1 MRW       0.146000
     15 H3           4.0040    -0.0010     2.0890 h4         1 MRW       0.027100
     16 H4           5.3060    -0.0920    -2.3410 ha         1 MRW       0.165000
     17 H5           1.6690    -0.0030    -4.5590 ha         1 MRW       0.147000
     18 H6           0.3520    -0.0010    -2.5020 ha         1 MRW       0.152000
@<TRIPOS>BOND
     1     3     4 ar
     2     3     2 ar
     3     4     5 ar
     4     1     2 1
     5     2    12 ar
     6     5     6 ar
     7    12     6 ar
     8    12    11 ar
     9     6     7 ar
    10    11    10 ar
    11     7     8 ar
    12    10     8 ar
    13     8     9 1
    14     1    13 1
    15     3    14 1
    16     4    15 1
    17     7    16 1
    18    10    17 1
    19    11    18 1
@<TRIPOS>SUBSTRUCTURE
     1 MRW         1 TEMP              0 ****  ****    0 ROOT
