@<TRIPOS>MOLECULE
MRX
   36    38     1     0     0
SMALL
bcc


@<TRIPOS>ATOM
      1 Br           0.0000     0.0000     0.0000 br         1 MRX      -0.057100
      2 C6           1.8910     0.0000     0.0000 ca         1 MRX       0.004100
      3 C1           2.5680     0.0000     1.1860 ca         1 MRX      -0.013000
      4 C5           2.5800    -0.0060    -1.2070 ca         1 MRX      -0.004000
      5 C4           3.9560    -0.0130    -1.2290 ca         1 MRX      -0.114000
      6 C3           4.6680    -0.0130    -0.0340 ca         1 MRX      -0.202200
      7 N9           6.0120    -0.0180     0.2630 na         1 MRX       0.346600
      8 C8           6.1640    -0.0160     1.6360 cc         1 MRX      -0.317300
      9 C18          7.4500    -0.0190     2.3510 c          1 MRX       0.325300
     10 N20          8.6020    -0.1460     1.6640 nz         1 MRX       0.203600
     11 O19          7.4730     0.0910     3.5620 o          1 MRX      -0.347100
     12 C7           4.9370    -0.0080     2.2210 cd         1 MRX      -0.024300
     13 C2           3.9680    -0.0010     1.1890 ca         1 MRX      -0.050800
     14 S10          4.6130    -0.0020     3.9530 sy         1 MRX       1.075800
     15 O16          3.2450    -0.3560     4.1060 o          1 MRX      -0.562800
     16 O17          5.6760    -0.7220     4.5630 o          1 MRX      -0.562800
     17 N11          4.7510     1.5650     4.4720 n3         1 MRX      -0.548500
     18 C15          3.6610     2.5500     4.5220 c3         1 MRX       0.249300
     19 C14          4.2620     3.8720     5.0450 c3         1 MRX      -0.034900
     20 C13          5.7720     3.7180     4.7250 c3         1 MRX      -0.034900
     21 C12          5.9860     2.2010     4.9660 c3         1 MRX       0.249300
     22 H1           2.0240    -0.0740     2.1200 ha         1 MRX       0.164000
     23 H5           2.0280    -0.0050    -2.1400 ha         1 MRX       0.130000
     24 H4           4.4840    -0.0180    -2.1750 ha         1 MRX       0.116000
     25 HN9          6.6310     0.0090    -0.5230 hn         1 MRX       0.123700
     26 H201         8.7190     0.6430     1.0580 hn         1 MRX       0.242133
     27 H202         8.5750    -0.9840     1.1180 hn         1 MRX       0.242133
     28 H151         2.8860     2.2070     5.1960 h1         1 MRX       0.013450
     29 H152         3.2550     2.6990     3.5280 h1         1 MRX       0.013450
     30 H141         3.8440     4.7180     4.5130 hc         1 MRX       0.026700
     31 H142         4.1050     3.9660     6.1130 hc         1 MRX       0.026700
     32 H131         5.9770     3.9770     3.6940 hc         1 MRX       0.026700
     33 H132         6.3740     4.3050     5.4080 hc         1 MRX       0.026700
     34 H121         6.1130     2.0020     6.0230 h1         1 MRX       0.013450
     35 H122         6.8420     1.8470     4.4040 h1         1 MRX       0.013450
     36 H203         9.3690    -0.1960     2.3050 hn         1 MRX       0.242133
@<TRIPOS>BOND
     1     1     2 1   
     2     2     3 ar  
     3     2     4 ar  
     4     3    13 ar  
     5     3    22 1   
     6     4     5 ar  
     7     4    23 1   
     8     5     6 ar  
     9     5    24 1   
    10     6     7 1   
    11     6    13 ar  
    12     7     8 1   
    13     7    25 1   
    14     8     9 1   
    15     8    12 2   
    16     9    10 1   
    17     9    11 2   
    18    10    26 1   
    19    10    27 1   
    20    10    36 1   
    21    12    13 1   
    22    12    14 1   
    23    14    15 2   
    24    14    16 2   
    25    14    17 1   
    26    17    18 1   
    27    17    21 1   
    28    18    19 1   
    29    18    28 1   
    30    18    29 1   
    31    19    20 1   
    32    19    30 1   
    33    19    31 1   
    34    20    21 1   
    35    20    32 1   
    36    20    33 1   
    37    21    34 1   
    38    21    35 1   
@<TRIPOS>SUBSTRUCTURE
     1 MRX         1 TEMP              0 ****  ****    0 ROOT
