@<TRIPOS>MOLECULE
MRY
   18    17     1     0     0
SMALL
bcc


@<TRIPOS>ATOM
      1 OAB        -0.0280    0.0440    0.1440 oh        1 MRY     -0.617800
      2 CAA         1.3860   -0.0090    0.0260 c3        1 MRY      0.095400
      3 CAC         1.9350    0.0360    1.4540 c3        1 MRY      0.146100
      4 OAD         1.4870   -1.0790    2.2110 oh        1 MRY     -0.609800
      5 CAE         3.4710   -0.0380    1.4300 c3        1 MRY      0.146100
      6 OAF         3.9190    1.0760    0.6730 oh        1 MRY     -0.609800
      7 CAG         4.0200    0.0070    2.8590 c3        1 MRY      0.095400
      8 OAH         5.4340   -0.0450    2.7410 oh        1 MRY     -0.617800
      9 HAB        -0.3810    0.0720   -0.7520 ho        1 MRY      0.410000
     10 HAA1        1.6900   -0.9630   -0.4800 h1        1 MRY      0.046700
     11 HAA2        1.7720    0.8700   -0.5530 h1        1 MRY      0.046700
     12 HAC         1.6010    0.9870    1.9550 h1        1 MRY      0.058700
     13 HAD         0.5300   -1.1270    2.0840 ho        1 MRY      0.425000
     14 HAE         3.8050   -0.9890    0.9300 h1        1 MRY      0.058700
     15 HAF         4.8760    1.1250    0.8000 ho        1 MRY      0.425000
     16 HAG1        3.6340   -0.8720    3.4380 h1        1 MRY      0.046700
     17 HAG2        3.7150    0.9610    3.3650 h1        1 MRY      0.046700
     18 HAH         5.7870   -0.0700    3.6370 ho        1 MRY      0.410000
@<TRIPOS>BOND
     1    1    2 1   
     2    1    9 1   
     3    2    3 1   
     4    2   10 1   
     5    2   11 1   
     6    3    4 1   
     7    3    5 1   
     8    3   12 1   
     9    4   13 1   
    10    5    6 1   
    11    5    7 1   
    12    5   14 1   
    13    6   15 1   
    14    7    8 1   
    15    7   16 1   
    16    7   17 1   
    17    8   18 1   
@<TRIPOS>SUBSTRUCTURE
     1 MRY         1 TEMP              0 ****  ****    0 ROOT
