@<TRIPOS>MOLECULE
molecule
   18    17     1     0     0
SMALL
bcc


@<TRIPOS>ATOM
      1 OAB          0.0000     0.0000     0.0000 oh         1 MRY      -0.614800
      2 CAA          1.4280     0.0000     0.0000 c3         1 MRY       0.120400
      3 CAC          1.9390     0.0000     1.4420 c3         1 MRY       0.150100
      4 OAD          1.4610    -1.1660     2.1160 oh         1 MRY      -0.603800
      5 CAE          3.4670    -0.0020     1.4430 c3         1 MRY       0.150100
      6 OAF          3.9450     1.1650     0.7690 oh         1 MRY      -0.603800
      7 CAG          3.9780    -0.0020     2.8850 c3         1 MRY       0.120400
      8 OAH          5.4060    -0.0020     2.8850 oh         1 MRY      -0.614800
      9 HAB         -0.3140     0.0860    -0.8850 ho         1 MRY       0.406000
     10 HAA1         1.7890     0.8840    -0.5110 h1         1 MRY       0.035700
     11 HAA2         1.7890    -0.8840    -0.5110 h1         1 MRY       0.035700
     12 HAC          1.5780     0.8850     1.9530 h1         1 MRY       0.054200
     13 HAD          0.6940    -0.9470     2.6180 ho         1 MRY       0.416000
     14 HAE          3.8270    -0.8870     0.9320 h1         1 MRY       0.054200
     15 HAF          4.7120     0.9460     0.2660 ho         1 MRY       0.416000
     16 HAG1         3.6170    -0.8860     3.3960 h1         1 MRY       0.035700
     17 HAG2         3.6170     0.8830     3.3960 h1         1 MRY       0.035700
     18 HAH          5.7200    -0.0870     3.7700 ho         1 MRY       0.406000
@<TRIPOS>BOND
     1     1     2 1
     2     1     9 1
     3     2     3 1
     4     2    10 1
     5     2    11 1
     6     3     4 1
     7     3     5 1
     8     3    12 1
     9     4    13 1
    10     5     6 1
    11     5     7 1
    12     5    14 1
    13     6    15 1
    14     7     8 1
    15     7    16 1
    16     7    17 1
    17     8    18 1
@<TRIPOS>SUBSTRUCTURE
     1 MRY         1 TEMP              0 ****  ****    0 ROOT
