@<TRIPOS>MOLECULE
molecule
   23    23     1     0     0
SMALL
bcc


@<TRIPOS>ATOM
      1 C1           0.0000     0.0000     0.0000 c3         1 MRZ      -0.084400
      2 C6           1.5300     0.0000     0.0000 c3         1 MRZ      -0.098400
      3 C5           2.0360     0.0000     1.4470 c3         1 MRZ       0.226800
      4 N4           1.4320    -1.1330     2.1590 nh         1 MRZ      -0.765600
      5 C3          -0.0300    -1.2800     2.1450 c3         1 MRZ       0.226800
      6 C2          -0.5120    -1.2660     0.6910 c3         1 MRZ      -0.098400
      7 C7           2.2200    -2.0410     2.8260 c2         1 MRZ       0.697100
      8 N8           1.6380    -3.0320     3.5820 nz         1 MRZ      -0.806600
      9 N9           3.5180    -1.9640     2.7420 n2         1 MRZ      -0.797100
     10 H1          -0.3590     0.0220    -1.0220 hc         1 MRZ       0.065700
     11 H2          -0.3600     0.8720     0.5340 hc         1 MRZ       0.065700
     12 H3           1.8910     0.8860    -0.5080 hc         1 MRZ       0.068450
     13 H4           1.8910    -0.8860    -0.5080 hc         1 MRZ       0.068450
     14 H5           1.7500     0.9260     1.9300 h1         1 MRZ       0.064700
     15 H6           3.1150    -0.1020     1.4530 h1         1 MRZ       0.064700
     16 H7          -0.3040    -2.2200     2.6090 h1         1 MRZ       0.064700
     17 H8          -0.4810    -0.4560     2.6850 h1         1 MRZ       0.064700
     18 H9          -1.5950    -1.2750     0.6710 hc         1 MRZ       0.068450
     19 H10         -0.1290    -2.1380     0.1760 hc         1 MRZ       0.068450
     20 H11          2.3420    -3.5000     4.1180 hn         1 MRZ       0.466133
     21 H12          0.9640    -2.6270     4.2010 hn         1 MRZ       0.466133
     22 H13          4.0930    -2.6240     3.2270 hn         1 MRZ       0.437400
     23 H83          1.1850    -3.6900     2.9800 hn         1 MRZ       0.466133
@<TRIPOS>BOND
     1     9     7 2
     2     5     6 1
     3     5     4 1
     4     6     1 1
     5     7     4 1
     6     7     8 1
     7     4     3 1
     8     1     2 1
     9     3     2 1
    10     1    10 1
    11     1    11 1
    12     2    12 1
    13     2    13 1
    14     3    14 1
    15     3    15 1
    16     5    16 1
    17     5    17 1
    18     6    18 1
    19     6    19 1
    20     8    20 1
    21     8    21 1
    22     9    22 1
    23    23     8 1
@<TRIPOS>SUBSTRUCTURE
     1 MRZ         1 TEMP              0 ****  ****    0 ROOT
