@<TRIPOS>MOLECULE
MRZ
   23    23     1     0     0
SMALL
bcc


@<TRIPOS>ATOM
      1 C1           0.0000     0.0000     0.0000 c3         1 MRZ      -0.025400
      2 C6           1.5300     0.0000     0.0000 c3         1 MRZ      -0.037400
      3 C5           2.0360     0.0000     1.4470 c3         1 MRZ       0.174800
      4 N4           1.4320    -1.1330     2.1590 nh         1 MRZ      -0.461600
      5 C3          -0.0300    -1.2800     2.1450 c3         1 MRZ       0.174800
      6 C2          -0.5120    -1.2660     0.6910 c3         1 MRZ      -0.037400
      7 C7           2.2200    -2.0410     2.8260 c2         1 MRZ       0.271100
      8 N8           1.6380    -3.0320     3.5820 nz         1 MRZ       0.185400
      9 N9           3.5180    -1.9640     2.7420 n2         1 MRZ      -0.643100
     10 H1          -0.3590     0.0220    -1.0220 hc         1 MRZ       0.037200
     11 H2          -0.3600     0.8720     0.5340 hc         1 MRZ       0.037200
     12 H3           1.8910    -0.8860    -0.5080 hc         1 MRZ       0.036950
     13 H4           1.8910     0.8860    -0.5080 hc         1 MRZ       0.036950
     14 H5           1.7500     0.9260     1.9300 h1         1 MRZ       0.027950
     15 H6           3.1150    -0.1010     1.4530 h1         1 MRZ       0.027950
     16 H7          -0.4810    -0.4560     2.6850 h1         1 MRZ       0.027950
     17 H8          -0.3040    -2.2200     2.6090 h1         1 MRZ       0.027950
     18 H9          -0.1290    -2.1380     0.1760 hc         1 MRZ       0.036950
     19 H10         -1.5950    -1.2750     0.6710 hc         1 MRZ       0.036950
     20 H11          2.3460    -3.5170     4.0980 hn         1 MRZ       0.225800
     21 H12          1.1640    -3.6760     2.9810 hn         1 MRZ       0.225800
     22 H13          3.9430    -1.2440     2.1920 hn         1 MRZ       0.389400
     23 H83          0.9820    -2.6240     4.2190 hn         1 MRZ       0.225800
@<TRIPOS>BOND
     1     1     2 1   
     2     1     6 1   
     3     1    10 1   
     4     1    11 1   
     5     2     3 1   
     6     2    12 1   
     7     2    13 1   
     8     3     4 1   
     9     3    14 1   
    10     3    15 1   
    11     4     5 1   
    12     4     7 1   
    13     5     6 1   
    14     5    16 1   
    15     5    17 1   
    16     6    18 1   
    17     6    19 1   
    18     7     8 1   
    19     7     9 2   
    20     8    20 1   
    21     8    21 1   
    22     8    23 1   
    23     9    22 1   
@<TRIPOS>SUBSTRUCTURE
     1 MRZ         1 TEMP              0 ****  ****    0 ROOT
