@<TRIPOS>MOLECULE
MS0
   24    25     1     0     0
SMALL
bcc


@<TRIPOS>ATOM
      1 O1          0.2350    0.6360   -0.0550 os        1 MS0     -0.230200
      2 C2          1.5870    0.3240    0.0510 ca        1 MS0      0.080100
      3 C3          1.9570    0.1890    1.4310 ca        1 MS0     -0.118800
      4 C4          0.7390    0.4370    2.1940 cc        1 MS0     -0.084400
      5 C5         -0.2480    0.6980    1.2730 cd        1 MS0      0.004100
      6 C7          0.6130    0.3980    3.6540 c3        1 MS0     -0.147200
      7 C10        -0.6070    1.1570    4.2220 c         1 MS0      0.917600
      8 O11        -0.4800    1.6450    5.3790 o         1 MS0     -0.845800
      9 O12        -1.6680    1.2300    3.5370 o         1 MS0     -0.845800
     10 C14         3.2750   -0.1160    1.7430 ca        1 MS0     -0.059000
     11 C16         4.1970   -0.2870    0.7100 ca        1 MS0     -0.231000
     12 C18         3.8010   -0.1510   -0.6310 ca        1 MS0      0.110100
     13 C19         2.4790    0.1610   -0.9980 ca        1 MS0     -0.162000
     14 O21         4.6610   -0.3180   -1.7100 os        1 MS0     -0.338900
     15 C22         6.0270   -0.5290   -1.3910 c3        1 MS0      0.120700
     16 H5         -1.3030    0.9580    1.3790 h4        1 MS0      0.237000
     17 H7          1.5420    0.8140    4.1250 hc        1 MS0      0.039200
     18 H7A         0.5140   -0.6700    3.9870 hc        1 MS0      0.039200
     19 H14         3.5870   -0.2170    2.7920 ha        1 MS0      0.138000
     20 H16         5.2380   -0.5290    0.9600 ha        1 MS0      0.122000
     21 H19         2.1870    0.2660   -2.0470 ha        1 MS0      0.150000
     22 H22         6.5280   -0.5780   -2.3900 h1        1 MS0      0.034367
     23 H22A        6.4330    0.3200   -0.7890 h1        1 MS0      0.034367
     24 H22B        6.1600   -1.4930   -0.8400 h1        1 MS0      0.034367
@<TRIPOS>BOND
     1    1    2 1
     2    1    5 1
     3    2    3 ar
     4    2   13 ar
     5    3    4 1
     6    3   10 ar
     7    4    5 2
     8    4    6 1
     9    5   16 1
    10    6    7 1
    11    6   17 1
    12    6   18 1
    13    7    8 1
    14    7    9 1
    15   10   11 ar
    16   10   19 1
    17   11   12 ar
    18   11   20 1
    19   12   13 ar
    20   12   14 1
    21   13   21 1
    22   14   15 1
    23   15   22 1
    24   15   23 1
    25   15   24 1
@<TRIPOS>SUBSTRUCTURE
     1 MS0         1 TEMP              0 ****  ****    0 ROOT
