@<TRIPOS>MOLECULE
MS2
   37    38     1     0     0
SMALL
bcc


@<TRIPOS>ATOM
      1 C            0.0000     0.0000     0.0000 c3         1 MS2       0.013900
      2 Br1         11.0490    -0.7590     2.9720 br         1 MS2      -0.156100
      3 C1           9.1180    -0.6660     3.1440 ca         1 MS2       0.070100
      4 C2A          8.3150    -0.8680     2.0360 ca         1 MS2      -0.083500
      5 C3A          6.9370    -0.7900     2.1570 ca         1 MS2      -0.069000
      6 C4           6.4210    -1.1810     3.4690 ca         1 MS2      -0.127300
      7 C3B          7.2960    -1.5860     4.4640 ca         1 MS2      -0.069000
      8 C2B          8.5450    -0.3870     4.3740 ca         1 MS2      -0.083500
      9 C5           4.9520    -1.4620     3.6450 c3         1 MS2       0.071000
     10 C6           4.5650    -1.2540     5.1120 c3         1 MS2      -0.028100
     11 N1           4.1750    -0.5500     2.8010 ns         1 MS2      -0.209900
     12 C7           2.9250    -0.8830     2.4220 c          1 MS2       0.616100
     13 O1           2.4100    -1.8920     2.8530 o          1 MS2      -0.609100
     14 C8           2.1700     0.0000     1.4630 cx         1 MS2      -0.107700
     15 C9A          2.6160     0.0000     0.0000 cx         1 MS2       0.014800
     16 Cl15         4.0080    -1.0560    -0.4450 cl         1 MS2      -0.026400
     17 Cl16         2.4990     1.5540    -0.9070 cl         1 MS2      -0.026400
     18 C17          1.3090    -0.6860     0.4000 cx         1 MS2       0.022300
     19 O9B          0.6970     1.2940     3.2470 o          1 MS2      -0.409200
     20 S9B          1.5610     1.5640     2.1530 s4         1 MS2      -0.002400
     21 C12          3.0750     2.3590     2.7590 c3         1 MS2       0.115200
     22 H1          -0.7420    -0.1590     0.7730 hc         1 MS2       0.024033
     23 H2           0.1720     1.0630    -0.1220 hc         1 MS2       0.024033
     24 H3          -0.3560    -0.4180    -0.9340 hc         1 MS2       0.024033
     25 H3A          6.2780    -0.7880     1.2970 ha         1 MS2       0.116500
     26 H3B          6.8060    -1.7560     5.4150 ha         1 MS2       0.116500
     27 H2B          9.2360    -0.4460     5.2060 ha         1 MS2       0.110000
     28 H5           4.7430    -2.4860     3.3590 h1         1 MS2       0.065700
     29 H61          3.4870    -1.1790     5.1930 hc         1 MS2       0.020700
     30 H62          4.9140    -2.0930     5.7000 hc         1 MS2       0.020700
     31 H63          5.0190    -0.3410     5.4780 hc         1 MS2       0.020700
     32 H99          4.5220     0.3680     2.6050 hn         1 MS2       0.188500
     33 H17          1.3760    -1.7670     0.4110 hc         1 MS2       0.085700
     34 H121         3.9340     1.9320     2.2540 h1         1 MS2       0.053367
     35 H122         3.0300     3.4220     2.5580 h1         1 MS2       0.053367
     36 H123         3.1660     2.1960     3.8260 h1         1 MS2       0.053367
     37 H2A          8.7560    -0.7630     1.0520 ha         1 MS2       0.110000
@<TRIPOS>BOND
     1     1    18 1   
     2     1    22 1   
     3     1    23 1   
     4     1    24 1   
     5     2     3 1   
     6     3     4 ar  
     7     3     8 ar  
     8     4     5 ar  
     9     4    37 1   
    10     5     6 ar  
    11     5    25 1   
    12     6     7 ar  
    13     6     9 1   
    14     7     8 ar  
    15     7    26 1   
    16     8    27 1   
    17     9    10 1   
    18     9    11 1   
    19     9    28 1   
    20    10    29 1   
    21    10    30 1   
    22    10    31 1   
    23    11    12 1   
    24    11    32 1   
    25    12    13 2   
    26    12    14 1   
    27    14    15 1   
    28    14    18 1   
    29    14    20 1   
    30    15    16 1   
    31    15    17 1   
    32    15    18 1   
    33    18    33 1   
    34    19    20 2   
    35    20    21 1   
    36    21    34 1   
    37    21    35 1   
    38    21    36 1   
@<TRIPOS>SUBSTRUCTURE
     1 MS2         1 TEMP              0 ****  ****    0 ROOT
