@<TRIPOS>MOLECULE
MS4
   39    41     1     0     0
SMALL
bcc


@<TRIPOS>ATOM
      1 S2           0.0000     0.0000     0.0000 s6         1 MS4       1.260400
      2 O1           1.4210     0.0000     0.0000 o          1 MS4      -0.497800
      3 O2          -0.7770     0.0000     1.1890 o          1 MS4      -0.497800
      4 O3          -0.4300     1.2260    -0.7940 os         1 MS4      -0.309800
      5 N1          -0.4680    -1.3320    -0.8650 nz         1 MS4      -0.289500
      6 N3          -8.3820     6.8840    -3.6570 nc         1 MS4      -0.657000
      7 N4          -9.1170     5.7740    -1.9720 nd         1 MS4      -0.652800
      8 N5          -8.6780     4.8750    -2.9580 na         1 MS4       0.353600
      9 N6          -5.4140     1.3510     2.7620 n1         1 MS4      -0.354800
     10 C1          -8.9180     6.9780    -2.4410 cc         1 MS4       0.568900
     11 C2          -8.2330     5.6250    -3.9810 cd         1 MS4       0.264400
     12 C3          -7.9710     2.9590    -1.6490 ca         1 MS4      -0.066300
     13 C4          -8.6650     2.7990    -0.4600 ca         1 MS4      -0.033000
     14 C5          -8.0100     2.3790     0.6790 ca         1 MS4      -0.093000
     15 C6          -6.6400     2.1130     0.6390 ca         1 MS4       0.035000
     16 C7          -5.9370     2.2770    -0.5680 cp         1 MS4      -0.076000
     17 C8          -6.6160     2.7010    -1.7070 ca         1 MS4      -0.073000
     18 C9          -5.9560     1.6780     1.8190 cg         1 MS4       0.210800
     19 C12         -3.6260     2.5590     0.3210 ca         1 MS4      -0.060000
     20 C13         -2.2730     2.3000     0.2620 ca         1 MS4      -0.027600
     21 C14         -1.7630     1.4810    -0.7380 ca         1 MS4       0.035100
     22 C15         -2.6150     0.9220    -1.6820 ca         1 MS4      -0.140000
     23 C16         -3.9680     1.1780    -1.6300 ca         1 MS4      -0.070000
     24 CAV         -4.4830     2.0000    -0.6270 cp         1 MS4       0.032000
     25 H11N        -0.7360    -1.0260    -1.7800 hn         1 MS4       0.355800
     26 H12N         0.2260    -2.0250    -1.0670 hn         1 MS4       0.355800
     27 H1          -9.9210     7.3210    -2.6590 h5         1 MS4       0.043100
     28 H2          -7.1610     5.4720    -4.0190 h5         1 MS4       0.027100
     29 HAO1        -8.5200     2.6300    -3.6120 h1         1 MS4       0.055700
     30 HAO2        -9.6780     3.1060    -2.5330 h1         1 MS4       0.055700
     31 H4          -9.6250     2.4470    -0.1040 ha         1 MS4       0.146000
     32 H8          -5.8760     2.6880    -2.4980 ha         1 MS4       0.124000
     33 H5          -8.3390     2.1550     1.6870 ha         1 MS4       0.132000
     34 H12         -3.8700     2.8450     1.3370 ha         1 MS4       0.155000
     35 H15         -2.2470     0.2780    -2.4720 ha         1 MS4       0.098000
     36 H16         -4.6830     0.4590    -2.0120 ha         1 MS4       0.128000
     37 H13         -0.5940    -2.0610    -0.1920 hn         1 MS4       0.355800
     38 Cl          -1.2040     2.9970     1.4400 cl         1 MS4       0.082600
     39 CAO         -8.7010     3.4130    -2.8860 c3         1 MS4       0.022600
@<TRIPOS>BOND
     1     1     2 2   
     2     1     3 2   
     3     1     4 1   
     4     1     5 1   
     5     4    21 1   
     6     5    25 1   
     7     5    26 1   
     8     5    37 1   
     9     6    10 1   
    10     6    11 2   
    11     7     8 1   
    12     7    10 2   
    13     8    11 1   
    14     8    39 1   
    15     9    18 3   
    16    10    27 1   
    17    11    28 1   
    18    12    13 ar  
    19    12    17 ar  
    20    12    39 1   
    21    13    14 ar  
    22    13    31 1   
    23    14    15 ar  
    24    14    33 1   
    25    15    16 ar  
    26    15    18 1   
    27    16    17 ar  
    28    16    24 1   
    29    17    32 1   
    30    19    20 ar  
    31    19    24 ar  
    32    19    34 1   
    33    20    21 ar  
    34    20    38 1   
    35    21    22 ar  
    36    22    23 ar  
    37    22    35 1   
    38    23    24 ar  
    39    23    36 1   
    40    29    39 1   
    41    30    39 1   
@<TRIPOS>SUBSTRUCTURE
     1 MS4         1 TEMP              0 ****  ****    0 ROOT
