@<TRIPOS>MOLECULE
molecule
   49    51     1     0     0
SMALL
bcc


@<TRIPOS>ATOM
      1 OAE          0.0000     0.0000     0.0000 o          1 MS5      -0.539300
      2 SAZ          1.4210     0.0000     0.0000 s6         1 MS5       1.475400
      3 OAD          2.1990     0.0000     1.1890 o          1 MS5      -0.539300
      4 NAC          1.8870    -1.3340    -0.8640 nz         1 MS5      -0.820500
      5 OAR          1.8500     1.2250    -0.7940 os         1 MS5      -0.379800
      6 CAX          1.0740     1.4790    -1.8820 ca         1 MS5      -0.019900
      7 CAJ         -0.0380     2.2950    -1.7670 ca         1 MS5      -0.040000
      8 CAW          1.3970     0.9250    -3.1170 ca         1 MS5       0.105100
      9 OAQ          2.4910     0.1270    -3.2430 os         1 MS5      -0.391900
     10 CAB          2.7590    -0.4060    -4.5410 c3         1 MS5       0.122700
     11 CAK          0.5990     1.1890    -4.2160 ca         1 MS5      -0.196000
     12 CAV         -0.5170     2.0030    -4.0940 ca         1 MS5       0.019700
     13 CAO         -1.3550     2.2550    -5.3210 c3         1 MS5       0.193100
     14 CAU         -0.8320     2.5590    -2.8730 ca         1 MS5      -0.068300
     15 CAL         -2.0250     3.4640    -2.6990 c3         1 MS5      -0.032100
     16 CAM         -2.9810     3.3000    -3.8800 c3         1 MS5       0.156800
     17 NAY         -2.2120     3.4280    -5.1250 n3         1 MS5      -0.720600
     18 CAN         -3.1020     3.6290    -6.2770 c3         1 MS5       0.212100
     19 CAS         -2.2810     3.9840    -7.4900 ca         1 MS5      -0.061300
     20 CAI         -1.8090     2.9860    -8.3210 ca         1 MS5      -0.170000
     21 CAG         -2.0050     5.3080    -7.7730 ca         1 MS5      -0.141000
     22 CAF         -1.2510     5.6380    -8.8840 ca         1 MS5      -0.083000
     23 CAH         -0.7730     4.6430    -9.7160 ca         1 MS5      -0.211000
     24 CAT         -1.0540     3.3140    -9.4370 ca         1 MS5       0.142100
     25 OAP         -0.5890     2.3330   -10.2550 os         1 MS5      -0.334900
     26 CAA          0.1830     2.7450   -11.3860 c3         1 MS5       0.127700
     27 HAC1         2.8050    -1.1870    -1.2350 hn         1 MS5       0.495133
     28 HAC2         1.2440    -1.4850    -1.6160 hn         1 MS5       0.495133
     29 HAJ         -0.2850     2.7370    -0.8090 ha         1 MS5       0.171000
     30 HAK          0.8480     0.7580    -5.1780 ha         1 MS5       0.164000
     31 HAB1         3.6450    -1.0270    -4.5000 h1         1 MS5       0.062700
     32 HAB2         1.9150    -1.0020    -4.8680 h1         1 MS5       0.062700
     33 HAB3         2.9190     0.4070    -5.2390 h1         1 MS5       0.062700
     34 HAO1        -1.9850     1.3910    -5.4920 h1         1 MS5       0.070700
     35 HAO2        -0.6940     2.4470    -6.1570 h1         1 MS5       0.070700
     36 HAL1        -2.5410     3.2040    -1.7820 hc         1 MS5       0.075200
     37 HAL2        -1.6910     4.4930    -2.6490 hc         1 MS5       0.075200
     38 HAM1        -3.4450     2.3220    -3.8390 h1         1 MS5       0.050200
     39 HAM2        -3.7410     4.0710    -3.8420 h1         1 MS5       0.050200
     40 HAN1        -3.7940     4.4340    -6.0620 h1         1 MS5       0.051700
     41 HAN2        -3.6550     2.7180    -6.4690 h1         1 MS5       0.051700
     42 HAI         -2.0300     1.9480    -8.1020 ha         1 MS5       0.134000
     43 HAG         -2.3790     6.0900    -7.1230 ha         1 MS5       0.139000
     44 HAF         -1.0340     6.6760    -9.1030 ha         1 MS5       0.140000
     45 HAH         -0.1820     4.9020   -10.5860 ha         1 MS5       0.142000
     46 HAA1         0.4890     1.8720   -11.9510 h1         1 MS5       0.046033
     47 HAA2        -0.4160     3.3910   -12.0160 h1         1 MS5       0.046033
     48 HAA3         1.0600     3.2820   -11.0480 h1         1 MS5       0.046033
     49 HAC3         1.8860    -2.1360    -0.2660 hn         1 MS5       0.495133
@<TRIPOS>BOND
     1     1     2 2
     2     2     3 2
     3     2     4 1
     4     2     5 1
     5     5     6 1
     6     6     7 ar
     7     6     8 ar
     8     7    14 ar
     9     8     9 1
    10     8    11 ar
    11     9    10 1
    12    11    12 ar
    13    12    13 1
    14    12    14 ar
    15    13    17 1
    16    14    15 1
    17    15    16 1
    18    16    17 1
    19    17    18 1
    20    18    19 1
    21    19    20 ar
    22    19    21 ar
    23    20    24 ar
    24    21    22 ar
    25    22    23 ar
    26    23    24 ar
    27    24    25 1
    28    25    26 1
    29     4    27 1
    30     4    28 1
    31     7    29 1
    32    11    30 1
    33    10    31 1
    34    10    32 1
    35    10    33 1
    36    13    34 1
    37    13    35 1
    38    15    36 1
    39    15    37 1
    40    16    38 1
    41    16    39 1
    42    18    40 1
    43    18    41 1
    44    20    42 1
    45    21    43 1
    46    22    44 1
    47    23    45 1
    48    26    46 1
    49    26    47 1
    50    26    48 1
    51    49     4 1
@<TRIPOS>SUBSTRUCTURE
     1 MS5         1 TEMP              0 ****  ****    0 ROOT
