@<TRIPOS>MOLECULE
MS7
   42    43     1     0     0
SMALL
bcc


@<TRIPOS>ATOM
      1 N1           0.0000     0.0000     0.0000 nz         1 MS7       0.090400
      2 C4           1.4690     0.0000     0.0000 c3         1 MS7      -0.156500
      3 C6           1.9790     0.0000     1.4430 c3         1 MS7       0.052900
      4 C9           1.5790     1.2870     2.1180 ca         1 MS7      -0.239300
      5 C10          0.3730     1.3700     2.7870 ca         1 MS7      -0.052500
      6 C12          0.0040     2.5500     3.4060 ca         1 MS7      -0.161000
      7 C14          0.8470     3.6500     3.3540 ca         1 MS7       0.196100
      8 C15          2.0570     3.5640     2.6810 ca         1 MS7      -0.161000
      9 C17          2.4230     2.3820     2.0690 ca         1 MS7      -0.052500
     10 O19          0.4870     4.8120     3.9620 os         1 MS7      -0.285900
     11 C20          1.4030     5.9050     3.8680 c3         1 MS7       0.266700
     12 C23          0.8390     7.0980     4.5950 ca         1 MS7      -0.134300
     13 C24          1.1140     7.2830     5.9370 ca         1 MS7      -0.073000
     14 C26          0.5970     8.3780     6.6040 ca         1 MS7      -0.098000
     15 C28         -0.1970     9.2870     5.9290 ca         1 MS7      -0.075000
     16 C30         -0.4710     9.1020     4.5870 ca         1 MS7      -0.098000
     17 C32          0.0510     8.0100     3.9180 ca         1 MS7      -0.073000
     18 C34          1.9720    -1.2300    -0.7100 c          1 MS7       0.540100
     19 O35          1.2430    -2.1900    -0.8500 o          1 MS7      -0.640100
     20 N36          3.2300    -1.2640    -1.1900 ns         1 MS7      -0.109900
     21 C38          3.7190    -2.4600    -1.8810 c3         1 MS7       0.074300
     22 HN1         -0.3340     0.9090     0.2530 hn         1 MS7       0.231133
     23 HN1A        -0.3340    -0.2350    -0.9140 hn         1 MS7       0.231133
     24 H4           1.8300     0.8850    -0.5110 hx         1 MS7       0.092700
     25 H6           3.0580    -0.0890     1.4450 hc         1 MS7       0.053200
     26 H6A          1.5470    -0.8370     1.9790 hc         1 MS7       0.053200
     27 H10         -0.2840     0.5100     2.8260 ha         1 MS7       0.100500
     28 H12         -0.9410     2.6150     3.9300 ha         1 MS7       0.137500
     29 H15          2.7170     4.4220     2.6420 ha         1 MS7       0.137500
     30 H17          3.3680     2.3140     1.5430 ha         1 MS7       0.100500
     31 H20          2.3480     5.6230     4.3160 h1         1 MS7       0.006700
     32 H20A         1.5580     6.1570     2.8260 h1         1 MS7       0.006700
     33 H24          1.7360     6.5710     6.4660 ha         1 MS7       0.104000
     34 H26          0.8120     8.5230     7.6560 ha         1 MS7       0.110500
     35 H28         -0.6040    10.1440     6.4520 ha         1 MS7       0.110000
     36 H30         -1.0910     9.8150     4.0580 ha         1 MS7       0.110500
     37 H32         -0.1650     7.8650     2.8670 ha         1 MS7       0.104000
     38 HN36         3.8200    -0.4600    -1.1060 hn         1 MS7       0.177500
     39 H38          3.1130    -2.6420    -2.7610 h1         1 MS7       0.030033
     40 H38A         3.6540    -3.3130    -1.2160 h1         1 MS7       0.030033
     41 H38B         4.7500    -2.3100    -2.1770 h1         1 MS7       0.030033
     42 H13         -0.3340    -0.6800     0.6540 hn         1 MS7       0.231133
@<TRIPOS>BOND
     1     1     2 1   
     2     1    22 1   
     3     1    23 1   
     4     1    42 1   
     5     2     3 1   
     6     2    18 1   
     7     2    24 1   
     8     3     4 1   
     9     3    25 1   
    10     3    26 1   
    11     4     5 ar  
    12     4     9 ar  
    13     5     6 ar  
    14     5    27 1   
    15     6     7 ar  
    16     6    28 1   
    17     7     8 ar  
    18     7    10 1   
    19     8     9 ar  
    20     8    29 1   
    21     9    30 1   
    22    10    11 1   
    23    11    12 1   
    24    11    31 1   
    25    11    32 1   
    26    12    13 ar  
    27    12    17 ar  
    28    13    14 ar  
    29    13    33 1   
    30    14    15 ar  
    31    14    34 1   
    32    15    16 ar  
    33    15    35 1   
    34    16    17 ar  
    35    16    36 1   
    36    17    37 1   
    37    18    19 2   
    38    18    20 1   
    39    20    21 1   
    40    20    38 1   
    41    21    39 1   
    42    21    40 1   
    43    21    41 1   
@<TRIPOS>SUBSTRUCTURE
     1 MS7         1 TEMP              0 ****  ****    0 ROOT
