@<TRIPOS>MOLECULE
molecule
   34    35     1     0     0
SMALL
bcc


@<TRIPOS>ATOM
      1 O            0.0000     0.0000     0.0000 o          1 MS8      -0.814800
      2 C            1.2080     0.0000     0.0000 c          1 MS8       0.871600
      3 OXT          1.8790     0.0070    -1.1630 o          1 MS8      -0.814800
      4 CA           1.9620     0.0000     1.3040 c3         1 MS8      -0.002500
      5 N            1.0800     0.4720     2.3790 nz         1 MS8      -0.780600
      6 CB           2.4350    -1.4200     1.6200 c3         1 MS8      -0.084400
      7 CAS          3.3060    -1.4000     2.8780 c3         1 MS8       0.013800
      8 CAJ          3.8900    -2.8040     3.1330 c3         1 MS8      -0.084400
      9 CAN          4.4230    -0.4030     2.7120 c          1 MS8       0.909600
     10 OAC          4.2110     0.8950     2.9830 o          1 MS8      -0.824300
     11 OAE          5.5100    -0.7710     2.3340 o          1 MS8      -0.824300
     12 OAL          2.5040    -1.0550     4.0230 os         1 MS8      -0.417600
     13 CAR          2.0720    -2.2940     4.6030 c3         1 MS8       0.097100
     14 CAQ          3.3140    -3.2040     4.5220 c3         1 MS8       0.113100
     15 CAH          1.5780    -2.1220     6.0250 c3         1 MS8      -0.071400
     16 CAP          2.7260    -1.7130     6.9520 c3         1 MS8      -0.115400
     17 CAG          3.8260    -2.7760     6.8440 c3         1 MS8       0.140400
     18 OAK          4.2860    -2.8180     5.4950 os         1 MS8      -0.390600
     19 HA           2.8200     0.6570     1.2260 hx         1 MS8       0.160700
     20 HN           0.4890    -0.2770     2.6800 hn         1 MS8       0.437467
     21 HNA          0.5160     1.2270     2.0410 hn         1 MS8       0.437467
     22 HB           3.0130    -1.8020     0.7870 hc         1 MS8       0.067200
     23 HBA          1.5760    -2.0590     1.7850 hc         1 MS8       0.067200
     24 HAJ          4.9720    -2.7620     3.1710 hc         1 MS8       0.078200
     25 HAJA         3.5560    -3.4970     2.3710 hc         1 MS8       0.078200
     26 HAR          1.2790    -2.7150     3.9980 h1         1 MS8       0.025700
     27 HAQ          3.0620    -4.2560     4.5760 h1         1 MS8       0.037700
     28 HAH          0.8140    -1.3540     6.0460 hc         1 MS8       0.036200
     29 HAHA         1.1580    -3.0590     6.3710 hc         1 MS8       0.036200
     30 HAP          2.3690    -1.6600     7.9730 hc         1 MS8       0.057200
     31 HAPA         3.1170    -0.7510     6.6450 hc         1 MS8       0.057200
     32 HAG          4.6480    -2.5140     7.4990 h1         1 MS8       0.034200
     33 HAGA         3.4250    -3.7430     7.1220 h1         1 MS8       0.034200
     34 HN3          1.6340     0.7790     3.1550 hn         1 MS8       0.437467
@<TRIPOS>BOND
     1     1     2 1
     2     2     3 1
     3     2     4 1
     4     4     5 1
     5     4     6 1
     6     6     7 1
     7     7     8 1
     8     7     9 1
     9     7    12 1
    10     8    14 1
    11     9    10 1
    12     9    11 1
    13    12    13 1
    14    13    14 1
    15    13    15 1
    16    14    18 1
    17    15    16 1
    18    16    17 1
    19    17    18 1
    20     4    19 1
    21     5    20 1
    22     5    21 1
    23     6    22 1
    24     6    23 1
    25     8    24 1
    26     8    25 1
    27    13    26 1
    28    14    27 1
    29    15    28 1
    30    15    29 1
    31    16    30 1
    32    16    31 1
    33    17    32 1
    34    17    33 1
    35    34     5 1
@<TRIPOS>SUBSTRUCTURE
     1 MS8         1 TEMP              0 ****  ****    0 ROOT
