@<TRIPOS>MOLECULE
molecule
   20    20     1     0     0
SMALL
bcc


@<TRIPOS>ATOM
      1 Cl1          0.0000     0.0000     0.0000 cl         1 MS9      -0.103400
      2 C2           1.7360     0.0000     0.0000 ca         1 MS9       0.062400
      3 C3           2.4220     0.0000     1.1990 ca         1 MS9      -0.161000
      4 C5           3.8100    -0.0000     1.2050 ca         1 MS9       0.242600
      5 C6           4.5110     0.0010    -0.0120 ca         1 MS9      -0.154600
      6 C7           3.8020     0.0010    -1.2160 ca         1 MS9      -0.066000
      7 C9           2.4250    -0.0050    -1.2030 ca         1 MS9      -0.150000
      8 C11          5.9830     0.0020    -0.0190 c          1 MS9       0.649700
      9 O12          6.5960    -0.1070     1.0240 o          1 MS9      -0.536000
     10 O13          6.6520     0.1230    -1.1830 os         1 MS9      -0.434900
     11 C14          8.1020     0.1160    -1.1140 c3         1 MS9       0.141700
     12 N18          4.5030     0.0010     2.4090 nv         1 MS9      -0.974200
     13 H3           1.8760    -0.0010     2.1350 ha         1 MS9       0.156000
     14 H7           4.3350    -0.0000    -2.1590 ha         1 MS9       0.155000
     15 H9           1.8780    -0.0050    -2.1380 ha         1 MS9       0.148000
     16 H14          8.4390     0.9500    -0.5120 h1         1 MS9       0.049033
     17 H14A         8.5120     0.2030    -2.1140 h1         1 MS9       0.049033
     18 H14B         8.4380    -0.8120    -0.6660 h1         1 MS9       0.049033
     19 HN18         4.7390     0.8680     2.8500 hn         1 MS9       0.439800
     20 HN1A         4.7230    -0.8650     2.8600 hn         1 MS9       0.439800
@<TRIPOS>BOND
     1     2     1 1
     2     7     2 ar
     3     2     3 ar
     4     3     4 ar
     5     3    13 1
     6     5     4 ar
     7     4    12 1
     8     6     5 ar
     9     5     8 1
    10     7     6 ar
    11     6    14 1
    12     7    15 1
    13    10     8 1
    14     8     9 2
    15    11    10 1
    16    11    16 1
    17    11    17 1
    18    11    18 1
    19    12    19 1
    20    12    20 1
@<TRIPOS>SUBSTRUCTURE
     1 MS9         1 TEMP              0 ****  ****    0 ROOT
