@<TRIPOS>MOLECULE
MSB
   19    19     1     0     0
SMALL
bcc


@<TRIPOS>ATOM
      1 S           0.0220   -0.0340   -0.0250 sy        1 MSB      1.401300
      2 OB1         1.4230    0.0100    0.0100 o         1 MSB     -0.654800
      3 OB2        -0.6790    0.0730    1.1840 o         1 MSB     -0.654800
      4 CG         -0.5190   -1.3200   -0.9190 ca        1 MSB     -0.446500
      5 CD1        -1.7930   -1.8610   -0.7040 ca        1 MSB      0.022000
      6 CD2         0.2990   -1.9050   -1.9010 ca        1 MSB      0.022000
      7 CE1        -2.2560   -2.9450   -1.4390 ca        1 MSB     -0.210500
      8 CE2        -0.1330   -2.9860   -2.6510 ca        1 MSB     -0.210500
      9 CZ         -1.4240   -3.5090   -2.4180 ca        1 MSB      0.197100
     10 OH         -1.7670   -4.5760   -3.2100 os        1 MSB     -0.316900
     11 CH         -3.0580   -5.1430   -2.9950 c3        1 MSB      0.108700
     12 HD1        -2.4370   -1.4200    0.0800 ha        1 MSB      0.159000
     13 HD2         1.3140   -1.4980   -2.0650 ha        1 MSB      0.159000
     14 HE1        -3.2590   -3.3500   -1.2450 ha        1 MSB      0.155000
     15 HE2         0.5070   -3.4460   -3.4170 ha        1 MSB      0.155000
     16 HH1        -3.8560   -4.3910   -3.2030 h1        1 MSB      0.052700
     17 HH2        -3.1450   -5.5350   -1.9520 h1        1 MSB      0.052700
     18 HH3        -3.0960   -5.9800   -3.7380 h1        1 MSB      0.052700
     19 HS1        -0.3700    0.8590   -0.7740 hs        1 MSB     -0.043200
@<TRIPOS>BOND
     1    1    2 2   
     2    1    3 2   
     3    1    4 1   
     4    1   19 1   
     5    4    5 ar  
     6    4    6 ar  
     7    5    7 ar  
     8    5   12 1   
     9    6    8 ar  
    10    6   13 1   
    11    7    9 ar  
    12    7   14 1   
    13    8    9 ar  
    14    8   15 1   
    15    9   10 1   
    16   10   11 1   
    17   11   16 1   
    18   11   17 1   
    19   11   18 1   
@<TRIPOS>SUBSTRUCTURE
     1 MSB         1 TEMP              0 ****  ****    0 ROOT
