@<TRIPOS>MOLECULE
molecule
   19    19     1     0     0
SMALL
bcc


@<TRIPOS>ATOM
      1 S            0.0000     0.0000     0.0000 sy         1 MSB       1.126300
      2 OB1          1.4500     0.0000     0.0000 o          1 MSB      -0.601300
      3 OB2         -0.7720     0.0000     1.2280 o          1 MSB      -0.601300
      4 CG          -0.5260    -1.3650    -0.9530 ca         1 MSB      -0.339500
      5 CD1         -1.7940    -1.9110    -0.7500 ca         1 MSB       0.012000
      6 CD2          0.3210    -1.9110    -1.9160 ca         1 MSB       0.012000
      7 CE1         -2.2130    -3.0030    -1.5100 ca         1 MSB      -0.212000
      8 CE2         -0.0980    -3.0030    -2.6770 ca         1 MSB      -0.212000
      9 CZ          -1.3650    -3.5480    -2.4730 ca         1 MSB       0.198100
     10 OH          -1.7740    -4.6140    -3.2160 os         1 MSB      -0.320900
     11 CH          -3.0810    -5.1230    -2.9550 c3         1 MSB       0.124700
     12 HD1         -2.4530    -1.4880    -0.0010 ha         1 MSB       0.158000
     13 HD2          1.3060    -1.4880    -2.0740 ha         1 MSB       0.158000
     14 HE1         -3.1970    -3.4270    -1.3530 ha         1 MSB       0.150500
     15 HE2          0.5610    -3.4270    -3.4260 ha         1 MSB       0.150500
     16 HH1         -3.1440    -5.4450    -1.9220 h1         1 MSB       0.047033
     17 HH2         -3.8140    -4.3450    -3.1350 h1         1 MSB       0.047033
     18 HH3         -3.2790    -5.9640    -3.6080 h1         1 MSB       0.047033
     19 HS1         -0.3550     1.1070    -0.6400 hs         1 MSB       0.055800
@<TRIPOS>BOND
     1     1     2 2
     2     1     3 2
     3     1     4 1
     4     4     5 ar
     5     4     6 ar
     6     5     7 ar
     7     5    12 1
     8     6     8 ar
     9     6    13 1
    10     7     9 ar
    11     7    14 1
    12     8     9 ar
    13     8    15 1
    14     9    10 1
    15    10    11 1
    16    11    16 1
    17    11    17 1
    18    11    18 1
    19    19     1 1
@<TRIPOS>SUBSTRUCTURE
     1 MSB         1 TEMP              0 ****  ****    0 ROOT
