@<TRIPOS>MOLECULE
MSD
   45    48     1     0     0
SMALL
bcc


@<TRIPOS>ATOM
      1 C2           0.0000     0.0000     0.0000 c2         1 MSD      -0.062000
      2 C3           1.3950     0.0000     0.0000 c2         1 MSD      -0.010000
      3 N4           2.0640     0.0000     1.1350 n2         1 MSD       0.018000
      4 C5           1.4460    -0.0110     2.3060 c2         1 MSD      -0.053000
      5 C6           0.0550    -0.0110     2.3820 c2         1 MSD      -0.134000
      6 C7          -0.6800    -0.0050     1.2270 c2         1 MSD      -0.042000
      7 N8           2.1960    -0.0180     3.4760 ns         1 MSD       0.147000
      8 C9           3.5340     0.1330     3.4200 c2         1 MSD      -0.106000
      9 S10          4.2950     0.4660     1.9240 s          1 MSD      -0.249000
     10 N11          4.2720     0.0200     4.5410 ns         1 MSD      -0.114000
     11 C12          5.7260     0.1820     4.4800 cx         1 MSD      -0.183000
     12 C13          6.5780    -0.7430     5.3530 cx         1 MSD      -0.139000
     13 C14          6.4290     0.7340     5.7220 cx         1 MSD      -0.438000
     14 C15          5.5720     1.0710     6.9150 c3         1 MSD      -0.263000
     15 C16          5.8580     0.5170     8.1530 c2         1 MSD       0.200000
     16 C18          5.0710     0.8230     9.2590 c2         1 MSD      -0.244000
     17 C19          4.0070     1.6680     9.1370 c2         1 MSD       0.014000
     18 C20          3.6990     2.2330     7.8920 c2         1 MSD      -0.293000
     19 C21          4.4920     1.9250     6.7720 c2         1 MSD       0.132000
     20 O22          4.2050     2.4660     5.5630 oh         1 MSD      -0.194000
     21 C23          2.5570     3.1410     7.7570 c2         1 MSD       0.302000
     22 O24          2.2940     3.6280     6.6780 o          1 MSD      -0.334000
     23 C25          1.7090     3.4690     8.9600 c3         1 MSD      -0.164000
     24 O41          6.9140    -0.3240     8.2890 os         1 MSD      -0.127000
     25 C42         -0.7270     0.0060    -1.2330 c1         1 MSD      -0.098000
     26 N43         -1.3070    -0.0080    -2.2110 n1         1 MSD      -0.044000
     27 C44          6.9530    -0.7200     9.6610 c3         1 MSD       0.005000
     28 HC3          1.8350     0.0580    -0.9880 h4         1 MSD       0.132000
     29 HC6         -0.4850     0.1020     3.3140 ha         1 MSD       0.120000
     30 HC7         -1.7410    -0.0290     1.0100 ha         1 MSD       0.125000
     31 HN8          2.3130     0.7620     4.0930 hn         1 MSD       0.106000
     32 H11N         4.8480    -0.7280     4.8740 hn         1 MSD       0.206000
     33 H12C         6.1380     1.0880     4.0520 h1         1 MSD       0.229000
     34 H131         6.5920    -1.4950     6.1310 hc         1 MSD       0.109500
     35 H132         7.5660    -1.0050     4.9940 hc         1 MSD       0.109500
     36 H14C         5.6340     1.2870     6.2090 DU         1 MSD       0.425000
     37 H18C         5.0140     0.2270    10.1620 ha         1 MSD       0.149000
     38 H19C         3.2310     1.8040     9.8800 ha         1 MSD       0.117000
     39 H22O         3.3230     2.1900     5.7470 ho         1 MSD       0.239000
     40 H251         1.2660     4.3690     8.5510 hc         1 MSD       0.085000
     41 H252         0.9930     2.6800     8.7650 hc         1 MSD       0.085000
     42 H253         2.3400     3.4460     9.8400 hc         1 MSD       0.085000
     43 H441         7.2890     0.0230    10.3740 h1         1 MSD       0.050667
     44 H442         5.9140    -0.8950     9.9140 h1         1 MSD       0.050667
     45 H443         7.6110    -1.5660     9.8180 h1         1 MSD       0.050667
@<TRIPOS>BOND
     1     1     2 1   
     2     1     6 1   
     3     1    25 1   
     4     2     3 1   
     5     2    28 1   
     6     3     4 1   
     7     4     5 1   
     8     4     7 1   
     9     5     6 1   
    10     5    29 1   
    11     6    30 1   
    12     7     8 1   
    13     7    31 1   
    14     8     9 1   
    15     8    10 1   
    16    10    11 1   
    17    10    32 1   
    18    11    12 1   
    19    11    13 1   
    20    11    33 1   
    21    12    13 1   
    22    12    34 1   
    23    12    35 1   
    24    13    14 1   
    25    13    36 1   
    26    14    15 1   
    27    14    19 1   
    28    14    36 1   
    29    15    16 1   
    30    15    24 1   
    31    16    17 1   
    32    16    37 1   
    33    17    18 1   
    34    17    38 1   
    35    18    19 1   
    36    18    21 1   
    37    19    20 1   
    38    20    39 1   
    39    21    22 1   
    40    21    23 1   
    41    23    40 1   
    42    23    41 1   
    43    23    42 1   
    44    24    27 1   
    45    25    26 1   
    46    27    43 1   
    47    27    44 1   
    48    27    45 1   
@<TRIPOS>SUBSTRUCTURE
     1 MSD         1 TEMP              0 ****  ****    0 ROOT
