@<TRIPOS>MOLECULE
molecule
   11    10     1     0     0
SMALL
bcc


@<TRIPOS>ATOM
      1 O5           0.0000     0.0000     0.0000 o          1 MSF      -0.835300
      2 O6           1.8640     0.0270    -1.0430 o          1 MSF      -0.835300
      3 C1           1.2180     0.0000     0.0000 c          1 MSF       0.929600
      4 C2           1.9350     0.0000     1.2950 c3         1 MSF      -0.057300
      5 SE3          3.6710     0.6570     1.4860 ss         1 MSF      -0.422200
      6 C4           3.2380     0.2090     3.3110 c3         1 MSF       0.034000
      7 H21          1.3160     0.5550     1.9890 h1         1 MSF       0.036700
      8 H22          1.9550    -1.0280     1.6360 h1         1 MSF       0.036700
      9 H41          2.9830    -0.8420     3.3740 h1         1 MSF       0.037367
     10 H42          4.0920     0.4120     3.9450 h1         1 MSF       0.037367
     11 H43          2.3950     0.8050     3.6390 h1         1 MSF       0.037367
@<TRIPOS>BOND
     1     1     3 1
     2     2     3 1
     3     3     4 1
     4     4     5 1
     5     4     7 1
     6     4     8 1
     7     5     6 1
     8     6     9 1
     9     6    10 1
    10     6    11 1
@<TRIPOS>SUBSTRUCTURE
     1 MSF         1 TEMP              0 ****  ****    0 ROOT
