@<TRIPOS>MOLECULE
MSF
   11    10     1     0     0
SMALL
bcc


@<TRIPOS>ATOM
      1 O5          0.2610    0.8210   -0.2860 o         1 MSF     -0.828300
      2 O6          1.9040   -0.4470   -1.1140 o         1 MSF     -0.828300
      3 C1          1.2820    0.0910   -0.1570 c         1 MSF      0.928600
      4 C2          1.7560   -0.2310    1.2780 c3        1 MSF     -0.126300
      5 SE3         2.9510    0.9480    1.8290 ss        1 MSF     -0.289200
      6 C4          3.2940    0.3580    3.4420 c3        1 MSF     -0.049000
      7 H21         2.2040   -1.2510    1.2840 h1        1 MSF      0.039700
      8 H22         0.8730   -0.2160    1.9560 h1        1 MSF      0.039700
      9 H41         2.3860    0.3540    4.0850 h1        1 MSF      0.037700
     10 H42         3.7080   -0.6760    3.4260 h1        1 MSF      0.037700
     11 H43         4.0500    1.0430    3.8860 h1        1 MSF      0.037700
@<TRIPOS>BOND
     1    1    3 1   
     2    2    3 1   
     3    3    4 1   
     4    4    5 1   
     5    4    7 1   
     6    4    8 1   
     7    5    6 1   
     8    6    9 1   
     9    6   10 1   
    10    6   11 1   
@<TRIPOS>SUBSTRUCTURE
     1 MSF         1 TEMP              0 ****  ****    0 ROOT
