@<TRIPOS>MOLECULE
molecule
   36    38     1     0     0
SMALL
bcc


@<TRIPOS>ATOM
      1 O5'          0.0000     0.0000     0.0000 oh         1 MSG      -0.593800
      2 C5'          1.4290     0.0000     0.0000 c3         1 MSG       0.147400
      3 C4'          1.9390     0.0000     1.4420 c3         1 MSG       0.127100
      4 O4'          1.5970    -1.2410     2.0960 os         1 MSG      -0.406600
      5 C1'          2.5080    -1.3480     3.2110 c3         1 MSG       0.259800
      6 N9           2.6090    -2.7400     3.6560 na         1 MSG      -0.073500
      7 C8           2.3170    -3.8470     2.9150 cc         1 MSG      -0.061200
      8 N7           2.5180    -4.9210     3.6230 na         1 MSG       0.088500
      9 C1           2.3090    -6.2940     3.1570 c3         1 MSG       0.017600
     10 C5           2.9450    -4.5710     4.8610 cc         1 MSG      -0.245000
     11 C6           3.3150    -5.2850     6.0150 cs         1 MSG       0.433400
     12 S6           3.2580    -7.0460     6.0410 s          1 MSG      -0.760400
     13 N1           3.7030    -4.6020     7.0880 nc         1 MSG      -0.276000
     14 C2           3.7490    -3.2760     7.0770 cd         1 MSG       0.429200
     15 N2           4.1610    -2.6120     8.2200 nv         1 MSG      -0.938800
     16 N3           3.4140    -2.5670     6.0110 nd         1 MSG      -0.344000
     17 C4           3.0130    -3.1690     4.8960 cc         1 MSG       0.113800
     18 C2'          3.8670    -0.8600     2.6620 c3         1 MSG       0.096100
     19 O2'          4.5740    -0.1100     3.6520 oh         1 MSG      -0.555800
     20 C3'          3.4830     0.0460     1.4690 c3         1 MSG       0.085100
     21 O3'          3.9390     1.3830     1.6860 oh         1 MSG      -0.567800
     22 H5'         -0.3140     0.2590    -0.8500 ho         1 MSG       0.409000
     23 H5'1         1.7900     0.8850    -0.5110 h1         1 MSG       0.032700
     24 H5'2         1.7900    -0.8840    -0.5110 h1         1 MSG       0.032700
     25 H4'          1.5300     0.8380     1.9920 h1         1 MSG       0.095700
     26 H1'          2.1810    -0.7100     4.0240 h2         1 MSG       0.127700
     27 H8           1.9690    -3.8350     1.8900 h5         1 MSG       0.231000
     28 H11          3.2420    -6.8400     3.2140 h1         1 MSG       0.087367
     29 H12          1.5680    -6.7780     3.7820 h1         1 MSG       0.087367
     30 H13          1.9610    -6.2780     2.1310 h1         1 MSG       0.087367
     31 HN21         4.4180    -3.1320     9.0360 hn         1 MSG       0.453300
     32 HN22         4.2010    -1.6120     8.2310 hn         1 MSG       0.453300
     33 H2'          4.4580    -1.7010     2.3210 h1         1 MSG       0.054700
     34 H2           5.5020    -0.1910     3.5050 ho         1 MSG       0.415000
     35 H3'          3.8880    -0.3530     0.5470 h1         1 MSG       0.048700
     36 H1           4.4760     1.6550     0.9600 ho         1 MSG       0.406000
@<TRIPOS>BOND
     1     1     2 1
     2     1    22 1
     3     2     3 1
     4     2    23 1
     5     2    24 1
     6     3     4 1
     7     3    20 1
     8     3    25 1
     9     4     5 1
    10     5     6 1
    11     5    18 1
    12     5    26 1
    13     6     7 2
    14     6    17 1
    15     7     8 1
    16     7    27 1
    17     8     9 1
    18     8    10 2
    19     9    28 1
    20     9    29 1
    21     9    30 1
    22    10    11 1
    23    10    17 1
    24    11    12 2
    25    11    13 1
    26    13    14 2
    27    14    15 1
    28    14    16 1
    29    15    31 1
    30    15    32 1
    31    16    17 2
    32    18    19 1
    33    18    20 1
    34    18    33 1
    35    19    34 1
    36    20    21 1
    37    20    35 1
    38    21    36 1
@<TRIPOS>SUBSTRUCTURE
     1 MSG         1 TEMP              0 ****  ****    0 ROOT
