@<TRIPOS>MOLECULE
molecule
   26    25     1     0     0
SMALL
bcc


@<TRIPOS>ATOM
      1 S1           0.0000     0.0000     0.0000 s6         1 MSH       1.111000
      2 O2          -0.4620     1.0930     0.7810 o          1 MSH      -0.617800
      3 O3          -0.4620    -0.1530    -1.3350 o          1 MSH      -0.617800
      4 C4          -0.2970    -1.5400     0.9080 c3         1 MSH      -0.233300
      5 C5           1.9680    -1.1610    -2.2070 c3         1 MSH      -0.106100
      6 C6           2.3230    -1.2490    -0.7220 c3         1 MSH      -0.066400
      7 C7           1.8140     0.0000     0.0000 c3         1 MSH      -0.186900
      8 C8           2.3230     0.0000     1.4410 c3         1 MSH      -0.063400
      9 C9           1.9560     1.3240     2.1120 c3         1 MSH      -0.114400
     10 C10          2.6000     1.3900     3.4990 c3         1 MSH      -0.087100
     11 HC41         0.0030    -1.4140     1.9410 h1         1 MSH       0.098033
     12 HC42         0.2800    -2.3410     0.4600 h1         1 MSH       0.098033
     13 HC43        -1.3510    -1.7870     0.8650 h1         1 MSH       0.098033
     14 HC51         1.0000    -1.6180    -2.3740 hc         1 MSH       0.048367
     15 HC52         1.9330    -0.1210    -2.5090 hc         1 MSH       0.048367
     16 HC53         2.7190    -1.6810    -2.7890 hc         1 MSH       0.048367
     17 HC61         3.3980    -1.3160    -0.6120 hc         1 MSH       0.048700
     18 HC62         1.8600    -2.1280    -0.2920 hc         1 MSH       0.048700
     19 HC71         2.1750     0.8850    -0.5100 h1         1 MSH       0.111700
     20 HC81         1.8680    -0.8190     1.9850 hc         1 MSH       0.049700
     21 HC82         3.4000    -0.1200     1.4430 hc         1 MSH       0.049700
     22 HC91         0.8800     1.3930     2.2110 hc         1 MSH       0.066200
     23 HC92         2.3160     2.1470     1.5080 hc         1 MSH       0.066200
     24 H101         2.3230     0.5110     4.0680 hc         1 MSH       0.033700
     25 H102         3.6780     1.4290     3.3950 hc         1 MSH       0.033700
     26 H103         2.2550     2.2780     4.0150 hc         1 MSH       0.033700
@<TRIPOS>BOND
     1     1     2 2
     2     1     3 2
     3     1     4 1
     4     1     7 1
     5     4    11 1
     6     4    12 1
     7     4    13 1
     8     5     6 1
     9     5    14 1
    10     5    15 1
    11     5    16 1
    12     6     7 1
    13     6    17 1
    14     6    18 1
    15     7     8 1
    16     7    19 1
    17     8     9 1
    18     8    20 1
    19     8    21 1
    20     9    10 1
    21     9    22 1
    22     9    23 1
    23    10    24 1
    24    10    25 1
    25    10    26 1
@<TRIPOS>SUBSTRUCTURE
     1 MSH         1 TEMP              0 ****  ****    0 ROOT
