@<TRIPOS>MOLECULE
MSH
   26    25     1     0     0
SMALL
bcc


@<TRIPOS>ATOM
      1 S1         -0.1570   -0.2730    0.1060 s6        1 MSH      1.312000
      2 O2         -0.7030    0.8520    0.7460 o         1 MSH     -0.652300
      3 O3         -0.6470   -0.5550   -1.1790 o         1 MSH     -0.652300
      4 C4         -0.3720   -1.6310    1.0910 c3        1 MSH     -0.367300
      5 C5          2.2200   -0.8630   -2.2700 c3        1 MSH     -0.112100
      6 C6          2.2280   -1.1930   -0.7980 c3        1 MSH     -0.044400
      7 C7          1.5680   -0.1100    0.0450 c3        1 MSH     -0.273900
      8 C8          2.2340   -0.0140    1.4080 c3        1 MSH     -0.047400
      9 C9          2.0690    1.3540    2.0420 c3        1 MSH     -0.101400
     10 C10         2.7020    1.3960    3.4090 c3        1 MSH     -0.090100
     11 HC41       -1.2680   -2.2200    0.7630 h1        1 MSH      0.119700
     12 HC42        0.4800   -2.3520    1.0950 h1        1 MSH      0.119700
     13 HC43       -0.5550   -1.3520    2.1590 h1        1 MSH      0.119700
     14 HC51        2.7020   -1.6900   -2.8450 hc        1 MSH      0.049033
     15 HC52        1.1730   -0.7350   -2.6450 hc        1 MSH      0.049033
     16 HC53        2.7870    0.0790   -2.4670 hc        1 MSH      0.049033
     17 HC61        1.7030   -2.1720   -0.6320 hc        1 MSH      0.043200
     18 HC62        3.2920   -1.3370   -0.4670 hc        1 MSH      0.043200
     19 HC71        1.7730    0.8750   -0.4750 h1        1 MSH      0.122700
     20 HC81        3.3320   -0.2250    1.3060 hc        1 MSH      0.045700
     21 HC82        1.8190   -0.8020    2.0930 hc        1 MSH      0.045700
     22 HC91        0.9780    1.6150    2.1210 hc        1 MSH      0.060200
     23 HC92        2.5460    2.1270    1.3830 hc        1 MSH      0.060200
     24 H101        2.2220    0.6530    4.0910 hc        1 MSH      0.034367
     25 H102        2.5820    2.4130    3.8550 hc        1 MSH      0.034367
     26 H103        3.7930    1.1630    3.3480 hc        1 MSH      0.034367
@<TRIPOS>BOND
     1    1    2 2   
     2    1    3 2   
     3    1    4 1   
     4    1    7 1   
     5    4   11 1   
     6    4   12 1   
     7    4   13 1   
     8    5    6 1   
     9    5   14 1   
    10    5   15 1   
    11    5   16 1   
    12    6    7 1   
    13    6   17 1   
    14    6   18 1   
    15    7    8 1   
    16    7   19 1   
    17    8    9 1   
    18    8   20 1   
    19    8   21 1   
    20    9   10 1   
    21    9   22 1   
    22    9   23 1   
    23   10   24 1   
    24   10   25 1   
    25   10   26 1   
@<TRIPOS>SUBSTRUCTURE
     1 MSH         1 TEMP              0 ****  ****    0 ROOT
