@<TRIPOS>MOLECULE
MSI
   48    51     1     0     0
SMALL
bcc


@<TRIPOS>ATOM
      1 S1           0.0000     0.0000     0.0000 sy         1 MSI       1.079200
      2 N1          -1.7730    -5.6480     0.1990 n          1 MSI       0.013000
      3 N2           1.6550     0.0000     0.0000 n3         1 MSI      -0.547500
      4 O4          -0.3850     0.5320    -1.2600 o          1 MSI      -0.583300
      5 O5          -0.3860     0.5190     1.2650 o          1 MSI      -0.583300
      6 C2          -1.8490    -5.8990     1.5170 c          1 MSI       0.523500
      7 C3          -1.4540    -4.6450     2.2390 c          1 MSI       0.557700
      8 C4          -0.7330    -2.3440     1.1840 ca         1 MSI       0.126000
      9 C5          -0.5270    -1.6810    -0.0070 ca         1 MSI      -0.214500
     10 C6          -0.7340    -2.3350    -1.2110 ca         1 MSI       0.071000
     11 C7          -1.1480    -3.6530    -1.2350 ca         1 MSI      -0.172000
     12 C8          -1.3560    -4.3430    -0.0460 ca         1 MSI       0.005600
     13 C9          -1.1510    -3.6740     1.1710 ca         1 MSI      -0.297600
     14 C20          2.5120     0.0000     1.1950 c3         1 MSI       0.214500
     15 C10          3.9760    -0.0300     0.7080 c3         1 MSI      -0.031400
     16 C11          3.8560    -0.6080    -0.7260 c3         1 MSI      -0.041400
     17 C12          2.5140     0.0050    -1.1970 c3         1 MSI       0.252800
     18 C13          2.2650     1.2610     2.0250 c3         1 MSI       0.121400
     19 C14          2.8510     2.3870     3.8680 ca         1 MSI       0.136100
     20 C15          3.5320     2.6550     5.0460 ca         1 MSI      -0.180500
     21 C16          3.2640     3.8130     5.7510 ca         1 MSI      -0.058500
     22 C17          2.3180     4.7050     5.2820 ca         1 MSI      -0.144000
     23 C18          1.6370     4.4400     4.1070 ca         1 MSI      -0.058500
     24 C19          1.9070     3.2870     3.3970 ca         1 MSI      -0.180500
     25 HC4         -0.6730    -1.8040     2.1210 ha         1 MSI       0.135000
     26 HC6         -0.5740    -1.8060    -2.1430 ha         1 MSI       0.125000
     27 HC7         -1.3070    -4.1520    -2.1830 ha         1 MSI       0.118000
     28 H20          2.3080    -0.8820     1.7900 h1         1 MSI       0.025700
     29 H101         4.3900     0.9710     0.6820 hc         1 MSI       0.030200
     30 H102         4.5730    -0.6830     1.3340 hc         1 MSI       0.030200
     31 H111         4.6750    -0.2690    -1.3490 hc         1 MSI       0.022700
     32 H112         3.7980    -1.6900    -0.7030 hc         1 MSI       0.022700
     33 H121         2.6670     1.0200    -1.5450 h1         1 MSI       0.012700
     34 H122         2.0760    -0.6050    -1.9770 h1         1 MSI       0.012700
     35 H131         1.2300     1.2880     2.3410 h1         1 MSI       0.043700
     36 H132         2.4820     2.1370     1.4250 h1         1 MSI       0.043700
     37 HC15         4.2740     1.9560     5.4140 ha         1 MSI       0.126000
     38 HC16         3.7960     4.0220     6.6710 ha         1 MSI       0.101000
     39 HC17         2.1070     5.6110     5.8370 ha         1 MSI       0.103000
     40 HC18         0.8980     5.1410     3.7400 ha         1 MSI       0.101000
     41 HC19         1.3730     3.0800     2.4770 ha         1 MSI       0.126000
     42 HC11        -1.2060    -6.7860    -1.4610 h1         1 MSI       0.022700
     43 HC12        -2.3760    -7.5630    -0.3860 h1         1 MSI       0.022700
     44 HC13        -2.8930    -6.2550    -1.4590 h1         1 MSI       0.022700
     45 C1          -2.0820    -6.6270    -0.8450 c3         1 MSI       0.073300
     46 O1           3.1140     1.2490     3.1740 os         1 MSI      -0.282900
     47 O2          -2.1780    -6.9480     2.0300 o          1 MSI      -0.580500
     48 O3          -1.3970    -4.4670     3.4390 o          1 MSI      -0.462100
@<TRIPOS>BOND
     1     1     3 1   
     2     1     4 2   
     3     1     5 2   
     4     1     9 1   
     5     2     6 1   
     6     2    12 1   
     7     2    45 1   
     8     3    14 1   
     9     3    17 1   
    10     6     7 1   
    11     6    47 2   
    12     7    13 1   
    13     7    48 2   
    14     8     9 ar  
    15     8    13 ar  
    16     8    25 1   
    17     9    10 ar  
    18    10    11 ar  
    19    10    26 1   
    20    11    12 ar  
    21    11    27 1   
    22    12    13 ar  
    23    14    15 1   
    24    14    18 1   
    25    14    28 1   
    26    15    16 1   
    27    15    29 1   
    28    15    30 1   
    29    16    17 1   
    30    16    31 1   
    31    16    32 1   
    32    17    33 1   
    33    17    34 1   
    34    18    35 1   
    35    18    36 1   
    36    18    46 1   
    37    19    20 ar  
    38    19    24 ar  
    39    19    46 1   
    40    20    21 ar  
    41    20    37 1   
    42    21    22 ar  
    43    21    38 1   
    44    22    23 ar  
    45    22    39 1   
    46    23    24 ar  
    47    23    40 1   
    48    24    41 1   
    49    42    45 1   
    50    43    45 1   
    51    44    45 1   
@<TRIPOS>SUBSTRUCTURE
     1 MSI         1 TEMP              0 ****  ****    0 ROOT
