@<TRIPOS>MOLECULE
molecule
   49    50     1     0     0
SMALL
bcc


@<TRIPOS>ATOM
      1 O1           0.0000     0.0000     0.0000 o          1 MSJ      -0.616500
      2 C2           1.2180     0.0000     0.0000 c          1 MSJ       0.703700
      3 N3           1.8990     0.0000     1.1630 ns         1 MSJ      -0.560500
      4 C4           3.2450    -0.0000     1.1620 c          1 MSJ       0.814500
      5 N5           3.9360     0.0020     0.0070 n          1 MSJ      -0.391000
      6 C6           3.2820     0.0010    -1.1950 cc         1 MSJ       0.026600
      7 C7           1.9320    -0.0050    -1.2230 cd         1 MSJ      -0.320200
      8 O8           3.8460     0.0010     2.2190 o          1 MSJ      -0.649500
      9 C9           5.4000     0.0030     0.0370 c3         1 MSJ       0.306800
     10 C10          6.9710    -4.6820    -3.6980 c3         1 MSJ       0.255200
     11 O10          5.8840    -1.2990    -0.3030 os         1 MSJ      -0.411600
     12 C11          5.8930    -1.5690    -1.7060 c3         1 MSJ       0.123400
     13 C12          6.4270    -2.9810    -1.9510 c3         1 MSJ      -0.081400
     14 S12          7.2740    -6.4930    -5.6840 sy         1 MSJ       1.429200
     15 C13          6.4370    -3.2690    -3.4530 c3         1 MSJ      -0.080400
     16 O13          8.3910    -6.9740    -4.9490 o          1 MSJ      -0.637800
     17 C14          5.9000    -7.4880    -5.2090 ca         1 MSJ      -0.314500
     18 C15          4.7370    -7.4640    -5.9560 ca         1 MSJ      -0.029000
     19 C16          3.6590    -8.2440    -5.5830 ca         1 MSJ      -0.152500
     20 C17          3.7440    -9.0500    -4.4630 ca         1 MSJ      -0.073000
     21 N17          6.9800    -4.9580    -5.1370 n7         1 MSJ      -0.908100
     22 C18          4.9070    -9.0750    -3.7160 ca         1 MSJ      -0.152500
     23 O19          7.2490    -6.4250    -7.1040 o          1 MSJ      -0.637800
     24 C20          5.9860    -8.2970    -4.0910 ca         1 MSJ      -0.029000
     25 C25          8.3940    -4.7910    -3.1500 c3         1 MSJ      -0.132600
     26 C26          6.0710    -5.6970    -2.9900 c3         1 MSJ      -0.132600
     27 HN3          1.4010    -0.0010     2.0320 hn         1 MSJ       0.365500
     28 H6           3.8450     0.0000    -2.1210 h4         1 MSJ       0.162000
     29 H7           1.4020    -0.0050    -2.1680 ha         1 MSJ       0.178000
     30 H9           5.7410     0.2670     1.0300 h2         1 MSJ       0.085700
     31 H9A          5.7760     0.7250    -0.6780 h2         1 MSJ       0.085700
     32 H11          6.5300    -0.8500    -2.2080 h1         1 MSJ       0.024700
     33 H11A         4.8850    -1.4910    -2.0950 h1         1 MSJ       0.024700
     34 H12          7.4350    -3.0590    -1.5620 hc         1 MSJ       0.064700
     35 H12A         5.7900    -3.7000    -1.4500 hc         1 MSJ       0.064700
     36 H13          7.0740    -2.5510    -3.9550 hc         1 MSJ       0.047200
     37 H13A         5.4290    -3.1920    -3.8430 hc         1 MSJ       0.047200
     38 H15          4.6710    -6.8320    -6.8330 ha         1 MSJ       0.150000
     39 H16          2.7480    -8.2240    -6.1680 ha         1 MSJ       0.137500
     40 H17          2.8980    -9.6600    -4.1690 ha         1 MSJ       0.135000
     41 HN17         6.8260    -4.2150    -5.7900 hn         1 MSJ       0.452800
     42 H18          4.9740    -9.7080    -2.8390 ha         1 MSJ       0.137500
     43 H20          6.8980    -8.3170    -3.5060 ha         1 MSJ       0.150000
     44 H25          8.3570    -4.9880    -2.0850 hc         1 MSJ       0.056367
     45 H25A         8.9220    -3.8620    -3.3270 hc         1 MSJ       0.056367
     46 H25B         8.9120    -5.6010    -3.6490 hc         1 MSJ       0.056367
     47 H26          6.6430    -6.5880    -2.7600 hc         1 MSJ       0.056367
     48 H26A         5.6920    -5.2640    -2.0710 hc         1 MSJ       0.056367
     49 H26B         5.2420    -5.9570    -3.6360 hc         1 MSJ       0.056367
@<TRIPOS>BOND
     1     1     2 2
     2     2     3 1
     3     2     7 1
     4     3     4 1
     5     4     5 1
     6     4     8 2
     7     5     6 1
     8     5     9 1
     9     6     7 2
    10     9    11 1
    11    10    15 1
    12    10    21 1
    13    10    25 1
    14    10    26 1
    15    11    12 1
    16    12    13 1
    17    13    15 1
    18    14    16 2
    19    14    17 1
    20    14    21 1
    21    14    23 2
    22    17    18 ar
    23    17    24 ar
    24    18    19 ar
    25    19    20 ar
    26    20    22 ar
    27    22    24 ar
    28     3    27 1
    29     6    28 1
    30     7    29 1
    31     9    30 1
    32     9    31 1
    33    12    32 1
    34    12    33 1
    35    13    34 1
    36    13    35 1
    37    15    36 1
    38    15    37 1
    39    18    38 1
    40    19    39 1
    41    20    40 1
    42    21    41 1
    43    22    42 1
    44    24    43 1
    45    25    44 1
    46    25    45 1
    47    25    46 1
    48    26    47 1
    49    26    48 1
    50    26    49 1
@<TRIPOS>SUBSTRUCTURE
     1 MSJ         1 TEMP              0 ****  ****    0 ROOT
