@<TRIPOS>MOLECULE
MSJ
   49    50     1     0     0
SMALL
bcc


@<TRIPOS>ATOM
      1 O1           0.0000     0.0000     0.0000 o          1 MSJ      -0.653500
      2 C2           1.2180     0.0000     0.0000 c          1 MSJ       0.612700
      3 N3           1.8990     0.0000     1.1630 ns         1 MSJ      -0.126500
      4 C4           3.2450    -0.0000     1.1620 c          1 MSJ       0.597500
      5 N5           3.9360     0.0020     0.0070 n          1 MSJ       0.004000
      6 C6           3.2820     0.0010    -1.1950 cc         1 MSJ      -0.096400
      7 C7           1.9320    -0.0050    -1.2230 cd         1 MSJ      -0.291200
      8 O8           3.8460     0.0010     2.2190 o          1 MSJ      -0.697500
      9 C9           5.4000     0.0030     0.0370 c3         1 MSJ       0.256800
     10 C10          6.9710    -4.6820    -3.6980 c3         1 MSJ       0.200200
     11 O10          5.8840    -1.2990    -0.3030 os         1 MSJ      -0.397600
     12 C11          5.8930    -1.5690    -1.7060 c3         1 MSJ       0.189400
     13 C12          6.4270    -2.9810    -1.9510 c3         1 MSJ      -0.044400
     14 S12          7.2740    -6.4930    -5.6840 sy         1 MSJ       1.045200
     15 C13          6.4370    -3.2690    -3.4530 c3         1 MSJ      -0.030400
     16 O13          8.3910    -6.9740    -4.9490 o          1 MSJ      -0.587800
     17 C14          5.9000    -7.4880    -5.2090 ca         1 MSJ      -0.159500
     18 C15          4.7370    -7.4640    -5.9560 ca         1 MSJ       0.002000
     19 C16          3.6590    -8.2440    -5.5830 ca         1 MSJ      -0.133500
     20 C17          3.7440    -9.0500    -4.4630 ca         1 MSJ      -0.045000
     21 N17          6.9800    -4.9580    -5.1370 n7         1 MSJ      -0.572100
     22 C18          4.9070    -9.0750    -3.7160 ca         1 MSJ      -0.133500
     23 O19          7.2490    -6.4250    -7.1040 o          1 MSJ      -0.587800
     24 C20          5.9860    -8.2970    -4.0910 ca         1 MSJ       0.002000
     25 C25          8.3940    -4.7910    -3.1500 c3         1 MSJ      -0.078100
     26 C26          6.0710    -5.6970    -2.9900 c3         1 MSJ      -0.078100
     27 HN3          1.4010    -0.0010     2.0320 hn         1 MSJ       0.208500
     28 H6           3.8450     0.0000    -2.1210 h4         1 MSJ       0.137000
     29 H7           1.4020    -0.0050    -2.1680 ha         1 MSJ       0.149000
     30 H9           5.7410     0.2670     1.0300 h2         1 MSJ       0.043200
     31 H9A          5.7760     0.7250    -0.6780 h2         1 MSJ       0.043200
     32 H11          6.5300    -0.8500    -2.2080 h1         1 MSJ      -0.005300
     33 H11A         4.8850    -1.4910    -2.0950 h1         1 MSJ      -0.005300
     34 H12          7.4350    -3.0590    -1.5620 hc         1 MSJ       0.037700
     35 H12A         5.7900    -3.7000    -1.4500 hc         1 MSJ       0.037700
     36 H13          7.0740    -2.5510    -3.9550 hc         1 MSJ       0.018700
     37 H13A         5.4290    -3.1920    -3.8430 hc         1 MSJ       0.018700
     38 H15          4.6710    -6.8320    -6.8330 ha         1 MSJ       0.124500
     39 H16          2.7480    -8.2240    -6.1680 ha         1 MSJ       0.110000
     40 H17          2.8980    -9.6600    -4.1690 ha         1 MSJ       0.103000
     41 HN17         6.8260    -4.2150    -5.7900 hn         1 MSJ       0.348800
     42 H18          4.9740    -9.7080    -2.8390 ha         1 MSJ       0.110000
     43 H20          6.8980    -8.3170    -3.5060 ha         1 MSJ       0.124500
     44 H25          8.3570    -4.9880    -2.0850 hc         1 MSJ       0.032700
     45 H25A         8.9220    -3.8620    -3.3270 hc         1 MSJ       0.032700
     46 H25B         8.9120    -5.6010    -3.6490 hc         1 MSJ       0.032700
     47 H26          6.6430    -6.5880    -2.7600 hc         1 MSJ       0.032700
     48 H26A         5.6920    -5.2640    -2.0710 hc         1 MSJ       0.032700
     49 H26B         5.2420    -5.9570    -3.6360 hc         1 MSJ       0.032700
@<TRIPOS>BOND
     1     1     2 2   
     2     2     3 1   
     3     2     7 1   
     4     3     4 1   
     5     3    27 1   
     6     4     5 1   
     7     4     8 2   
     8     5     6 1   
     9     5     9 1   
    10     6     7 2   
    11     6    28 1   
    12     7    29 1   
    13     9    11 1   
    14     9    30 1   
    15     9    31 1   
    16    10    15 1   
    17    10    21 1   
    18    10    25 1   
    19    10    26 1   
    20    11    12 1   
    21    12    13 1   
    22    12    32 1   
    23    12    33 1   
    24    13    15 1   
    25    13    34 1   
    26    13    35 1   
    27    14    16 2   
    28    14    17 1   
    29    14    21 1   
    30    14    23 2   
    31    15    36 1   
    32    15    37 1   
    33    17    18 ar  
    34    17    24 ar  
    35    18    19 ar  
    36    18    38 1   
    37    19    20 ar  
    38    19    39 1   
    39    20    22 ar  
    40    20    40 1   
    41    21    41 1   
    42    22    24 ar  
    43    22    42 1   
    44    24    43 1   
    45    25    44 1   
    46    25    45 1   
    47    25    46 1   
    48    26    47 1   
    49    26    48 1   
    50    26    49 1   
@<TRIPOS>SUBSTRUCTURE
     1 MSJ         1 TEMP              0 ****  ****    0 ROOT
