@<TRIPOS>MOLECULE
MSM
    9     8     1     0     0
SMALL
bcc


@<TRIPOS>ATOM
      1 CB1         0.0110    0.0010    0.0200 c3        1 MSM     -0.045000
      2 SG1         1.7630    0.0030    0.0520 ss        1 MSM     -0.281200
      3 CD1         2.1180   -0.0010    1.7670 c3        1 MSM     -0.045000
      4 HB11       -0.2810    0.0040   -1.0550 h1        1 MSM      0.061700
      5 HB12       -0.4130   -0.9040    0.5090 h1        1 MSM      0.061700
      6 HB13       -0.4140    0.9030    0.5140 h1        1 MSM      0.061700
      7 HD11        1.7140   -0.9060    2.2740 h1        1 MSM      0.061700
      8 HD12        3.2290   -0.0010    1.8560 h1        1 MSM      0.061700
      9 HD13        1.7130    0.9010    2.2780 h1        1 MSM      0.061700
@<TRIPOS>BOND
     1    1    2 1   
     2    1    4 1   
     3    1    5 1   
     4    1    6 1   
     5    2    3 1   
     6    3    7 1   
     7    3    8 1   
     8    3    9 1   
@<TRIPOS>SUBSTRUCTURE
     1 MSM         1 TEMP              0 ****  ****    0 ROOT
