@<TRIPOS>MOLECULE
molecule
    9     8     1     0     0
SMALL
bcc


@<TRIPOS>ATOM
      1 CB1          0.0000     0.0000     0.0000 c3         1 MSM       0.000500
      2 SG1          1.8140     0.0000     0.0000 ss         1 MSM      -0.353200
      3 CD1          2.1300     0.0000     1.7870 c3         1 MSM       0.000500
      4 HB11        -0.3610    -0.0000    -1.0210 h1         1 MSM       0.058700
      5 HB12        -0.3610    -0.8850     0.5110 h1         1 MSM       0.058700
      6 HB13        -0.3610     0.8850     0.5110 h1         1 MSM       0.058700
      7 HD11         3.1980     0.0000     1.9650 h1         1 MSM       0.058700
      8 HD12         1.6900    -0.8850     2.2310 h1         1 MSM       0.058700
      9 HD13         1.6900     0.8850     2.2310 h1         1 MSM       0.058700
@<TRIPOS>BOND
     1     1     2 1
     2     1     4 1
     3     1     5 1
     4     1     6 1
     5     2     3 1
     6     3     7 1
     7     3     8 1
     8     3     9 1
@<TRIPOS>SUBSTRUCTURE
     1 MSM         1 TEMP              0 ****  ****    0 ROOT
