@<TRIPOS>MOLECULE
molecule
   25    25     1     0     0
SMALL
bcc


@<TRIPOS>ATOM
      1 C5           0.0000     0.0000     0.0000 c3         1 MSN       0.107500
      2 N5          -0.5180     0.5440    -1.2630 nz         1 MSN      -0.799600
      3 C4           1.5490     0.0000     0.0000 c3         1 MSN       0.114100
      4 O4           2.0550     1.1730    -0.6390 oh         1 MSN      -0.581800
      5 C3           1.8910     0.0000     1.5110 c3         1 MSN       0.125100
      6 O3           3.2010     0.5280     1.7260 oh         1 MSN      -0.550800
      7 C2           0.8250     0.9220     2.1400 c3         1 MSN       0.150100
      8 O2           1.3410     2.2470     2.2790 oh         1 MSN      -0.565800
      9 C1          -0.3780     0.9200     1.1800 c3         1 MSN      -0.025600
     10 S6          -1.8480     0.2750     2.0250 ss         1 MSN      -0.329200
     11 C7          -2.1200     1.5970     3.2370 c3         1 MSN       0.011000
     12 H5          -0.3760    -1.0020     0.1690 hx         1 MSN       0.131700
     13 HN51        -0.1570     0.0110    -2.0290 hn         1 MSN       0.461133
     14 HN52        -0.2320     1.4990    -1.3570 hn         1 MSN       0.461133
     15 H4           1.9290    -0.8960    -0.4750 h1         1 MSN       0.065700
     16 HO4          2.7480     0.9340    -1.2320 ho         1 MSN       0.436000
     17 H3           1.8090    -1.0020     1.9150 h1         1 MSN       0.066700
     18 HO3          3.7410    -0.1270     2.1360 ho         1 MSN       0.417000
     19 H2           0.5250     0.5330     3.1060 h1         1 MSN       0.073700
     20 HO2          1.5020     2.4280     3.1900 ho         1 MSN       0.425000
     21 H1          -0.5630     1.9240     0.8190 h1         1 MSN       0.103700
     22 H71         -1.8370     2.5480     2.8030 h1         1 MSN       0.080033
     23 H72         -1.5180     1.4080     4.1180 h1         1 MSN       0.080033
     24 H73         -3.1670     1.6230     3.5140 h1         1 MSN       0.080033
     25 H53         -1.5170     0.4840    -1.2670 hn         1 MSN       0.461133
@<TRIPOS>BOND
     1     1     2 1
     2     1     3 1
     3     1     9 1
     4     1    12 1
     5     2    13 1
     6     2    14 1
     7     3     4 1
     8     3     5 1
     9     3    15 1
    10     4    16 1
    11     5     6 1
    12     5     7 1
    13     5    17 1
    14     6    18 1
    15     7     8 1
    16     7     9 1
    17     7    19 1
    18     8    20 1
    19     9    10 1
    20     9    21 1
    21    10    11 1
    22    11    22 1
    23    11    23 1
    24    11    24 1
    25    25     2 1
@<TRIPOS>SUBSTRUCTURE
     1 MSN         1 TEMP              0 ****  ****    0 ROOT
