@<TRIPOS>MOLECULE
MSQ
   40    42     1     0     0
SMALL
bcc


@<TRIPOS>ATOM
      1 N1           0.0000     0.0000     0.0000 nb         1 MSQ      -0.716000
      2 C2           1.3230     0.0000     0.0000 ca         1 MSQ       0.677900
      3 N3           2.0350     0.0000     1.1020 nb         1 MSQ      -0.676000
      4 C4           1.4330    -0.0010     2.3020 ca         1 MSQ       0.453600
      5 C5           0.0170    -0.0010     2.3530 ca         1 MSQ      -0.306600
      6 C6          -0.6940    -0.0010     1.1300 ca         1 MSQ       0.539200
      7 C7           2.1650    -0.0010     3.4960 ca         1 MSQ      -0.269300
      8 C8           1.4990    -0.0040     4.7000 ca         1 MSQ       0.146100
      9 C9           0.0980    -0.0100     4.7430 ca         1 MSQ       0.107100
     10 C10         -0.6360    -0.0040     3.5900 ca         1 MSQ      -0.182000
     11 N12         -2.0740    -0.0020     1.1140 nu         1 MSQ      -0.286300
     12 C14         -2.7600     0.1150    -0.0990 ca         1 MSQ       0.003600
     13 C15         -2.2240     0.8750    -1.1280 ca         1 MSQ      -0.076000
     14 C16         -2.9050     0.9840    -2.3330 ca         1 MSQ       0.075900
     15 C17         -4.1250     0.3420    -2.5000 ca         1 MSQ      -0.151000
     16 C18         -4.6590    -0.4090    -1.4710 ca         1 MSQ      -0.063000
     17 C19         -3.9810    -0.5250    -0.2730 ca         1 MSQ      -0.143000
     18 S21         -2.2260     1.9430    -3.6450 ss         1 MSQ      -0.322000
     19 C22         -3.5200     1.7230    -4.8990 c3         1 MSQ       0.100000
     20 O26          2.2070    -0.0050     5.8600 os         1 MSQ      -0.265900
     21 C27          3.5890    -0.0050     5.5000 c3         1 MSQ       0.209700
     22 O31         -0.5370    -0.0120     5.9440 os         1 MSQ      -0.262900
     23 C32         -1.9400    -0.0070     5.6700 c3         1 MSQ       0.213700
     24 H21          1.8400     0.0010    -0.9520 h5         1 MSQ      -0.002900
     25 H71          3.2480     0.0040     3.4710 ha         1 MSQ       0.156000
     26 H101        -1.7180    -0.0090     3.6340 ha         1 MSQ       0.135000
     27 H121        -2.5840    -0.0920     1.9700 hn         1 MSQ       0.288800
     28 H151        -1.2720     1.3740    -0.9950 ha         1 MSQ       0.151000
     29 H171        -4.6580     0.4290    -3.4390 ha         1 MSQ       0.119000
     30 H181        -5.6100    -0.9090    -1.6040 ha         1 MSQ       0.103000
     31 H191        -4.4020    -1.1160     0.5320 ha         1 MSQ       0.105000
     32 H221        -3.2490     2.2660    -5.7960 h1         1 MSQ       0.037033
     33 H222        -3.6220     0.6700    -5.1310 h1         1 MSQ       0.037033
     34 H223        -4.4610     2.1010    -4.5170 h1         1 MSQ       0.037033
     35 H271         3.8110     0.8810     4.9170 h1         1 MSQ       0.007033
     36 H272         4.1960    -0.0070     6.3970 h1         1 MSQ       0.007033
     37 H273         3.8090    -0.8880     4.9120 h1         1 MSQ       0.007033
     38 H321        -2.2000    -0.8910     5.0990 h1         1 MSQ       0.002367
     39 H322        -2.4910    -0.0060     6.6030 h1         1 MSQ       0.002367
     40 H323        -2.1940     0.8780     5.1000 h1         1 MSQ       0.002367
@<TRIPOS>BOND
     1     1     2 ar  
     2     1     6 ar  
     3     2     3 ar  
     4     2    24 1   
     5     3     4 ar  
     6     4     5 ar  
     7     4     7 ar  
     8     5     6 ar  
     9     5    10 ar  
    10     6    11 1   
    11     7     8 ar  
    12     7    25 1   
    13     8     9 ar  
    14     8    20 1   
    15     9    10 ar  
    16     9    22 1   
    17    10    26 1   
    18    11    12 1   
    19    11    27 1   
    20    12    13 ar  
    21    12    17 ar  
    22    13    14 ar  
    23    13    28 1   
    24    14    15 ar  
    25    14    18 1   
    26    15    16 ar  
    27    15    29 1   
    28    16    17 ar  
    29    16    30 1   
    30    17    31 1   
    31    18    19 1   
    32    19    32 1   
    33    19    33 1   
    34    19    34 1   
    35    20    21 1   
    36    21    35 1   
    37    21    36 1   
    38    21    37 1   
    39    22    23 1   
    40    23    38 1   
    41    23    39 1   
    42    23    40 1   
@<TRIPOS>SUBSTRUCTURE
     1 MSQ         1 TEMP              0 ****  ****    0 ROOT
