@<TRIPOS>MOLECULE
MSR
   20    21     1     0     0
SMALL
bcc


@<TRIPOS>ATOM
      1 C12         0.0180   -0.2740   -0.0170 ca        1 MSR     -0.107000
      2 C13         1.4050   -0.2400   -0.0370 ca        1 MSR     -0.166500
      3 C14         2.1080    0.0850    1.1350 ca        1 MSR      0.120100
      4 O17         3.4800    0.0950    1.0440 oh        1 MSR     -0.492100
      5 C15         1.4210    0.3770    2.3200 ca        1 MSR     -0.166500
      6 C16         0.0310    0.3510    2.3370 ca        1 MSR     -0.107000
      7 C11        -0.6910    0.0230    1.1700 ca        1 MSR     -0.022200
      8 N3         -2.0960   -0.0100    1.1880 na        1 MSR     -0.136000
      9 C4         -2.9550    0.2480    0.1100 cc        1 MSR     -0.247600
     10 C5         -4.2600    0.0920    0.6060 cd        1 MSR      0.293200
     11 NFE        -4.2240   -0.2580    1.9570 nd        1 MSR     -0.663000
     12 C2         -2.9210   -0.3140    2.2910 cc        1 MSR      0.396400
     13 H12        -0.5260   -0.5380   -0.9370 ha        1 MSR      0.146000
     14 H13         1.9620   -0.4670   -0.9580 ha        1 MSR      0.149500
     15 HO17        3.8360    0.3340    1.9130 ho        1 MSR      0.422000
     16 H15         1.9760    0.6310    3.2350 ha        1 MSR      0.149500
     17 H16        -0.4980    0.5930    3.2720 ha        1 MSR      0.146000
     18 H4         -2.5880    0.5230   -0.8760 h4        1 MSR      0.179000
     19 H5         -5.2040    0.2090    0.0750 h4        1 MSR      0.044100
     20 H2         -2.5170   -0.5710    3.2750 h5        1 MSR      0.062100
@<TRIPOS>BOND
     1    1    2 ar
     2    1    7 ar
     3    1   13 1
     4    2    3 ar
     5    2   14 1
     6    3    4 1
     7    3    5 ar
     8    4   15 1
     9    5    6 ar
    10    5   16 1
    11    6    7 ar
    12    6   17 1
    13    7    8 1
    14    8    9 1
    15    8   12 1
    16    9   10 2
    17    9   18 1
    18   10   11 1
    19   10   19 1
    20   11   12 2
    21   12   20 1
@<TRIPOS>SUBSTRUCTURE
     1 MSR         1 TEMP              0 ****  ****    0 ROOT
