@<TRIPOS>MOLECULE
MST
   35    35     1     0     0
SMALL
bcc


@<TRIPOS>ATOM
      1 N1           0.0000     0.0000     0.0000 nb         1 MST      -0.822000
      2 C2           1.3300     0.0000     0.0000 ca         1 MST       0.852300
      3 S7           2.2120    -0.0050    -1.5260 ss         1 MST      -0.386400
      4 C8           0.8250    -0.0030    -2.6900 c3         1 MST       0.116000
      5 N3           1.9940     0.0000     1.1510 nb         1 MST      -0.765000
      6 C4           1.3300     0.0040     2.3020 ca         1 MST       0.794900
      7 N9           2.0200     0.0040     3.4970 nu         1 MST      -0.458900
      8 C10          3.4840    -0.0000     3.4970 c3         1 MST       0.125200
      9 C11          3.9940     0.0010     4.9390 c3         1 MST      -0.018100
     10 C12          3.9900    -1.2520     2.7790 c3         1 MST      -0.018100
     11 C13          3.9980     1.2460     2.7760 c3         1 MST      -0.018100
     12 N5           0.0010     0.0080     2.3010 nb         1 MST      -0.826000
     13 C6          -0.6640     0.0080     1.1500 ca         1 MST       0.796900
     14 N14         -2.0440     0.0120     1.1500 nu         1 MST      -0.473900
     15 C15         -2.7770     0.0120    -0.1180 c3         1 MST       0.163800
     16 C16         -4.2810     0.0170     0.1620 c3         1 MST      -0.007100
     17 H83          0.2180    -0.8860    -2.5300 h1         1 MST       0.038367
     18 H82          0.2220     0.8830    -2.5320 h1         1 MST       0.038367
     19 H81          1.2050    -0.0050    -3.7050 h1         1 MST       0.038367
     20 H9           1.5190     0.0110     4.3630 hn         1 MST       0.300800
     21 H113         5.0770    -0.0030     4.9400 hc         1 MST       0.017144
     22 H112         3.6360     0.8870     5.4480 hc         1 MST       0.017144
     23 H111         3.6300    -0.8820     5.4510 hc         1 MST       0.017144
     24 H123         4.9710    -1.5140     3.1570 hc         1 MST       0.017144
     25 H122         4.0530    -1.0580     1.7150 hc         1 MST       0.017144
     26 H121         3.3040    -2.0720     2.9560 hc         1 MST       0.017144
     27 H133         4.0570     1.0490     1.7120 hc         1 MST       0.017144
     28 H132         4.9820     1.5000     3.1510 hc         1 MST       0.017144
     29 H131         3.3190     2.0710     2.9530 hc         1 MST       0.017144
     30 H14         -2.5440     0.0160     2.0170 hn         1 MST       0.302800
     31 H152        -2.5180    -0.8740    -0.6850 h1         1 MST       0.023200
     32 H151        -2.5130     0.8950    -0.6880 h1         1 MST       0.023200
     33 H163        -4.5450    -0.8660     0.7310 hc         1 MST       0.009367
     34 H162        -4.5400     0.9030     0.7280 hc         1 MST       0.009367
     35 H161        -4.8230     0.0170    -0.7760 hc         1 MST       0.009367
@<TRIPOS>BOND
     1     1     2 ar  
     2     1    13 ar  
     3     2     3 1   
     4     2     5 ar  
     5     3     4 1   
     6     4    17 1   
     7     4    18 1   
     8     4    19 1   
     9     5     6 ar  
    10     6     7 1   
    11     6    12 ar  
    12     7     8 1   
    13     7    20 1   
    14     8     9 1   
    15     8    10 1   
    16     8    11 1   
    17     9    21 1   
    18     9    22 1   
    19     9    23 1   
    20    10    24 1   
    21    10    25 1   
    22    10    26 1   
    23    11    27 1   
    24    11    28 1   
    25    11    29 1   
    26    12    13 ar  
    27    13    14 1   
    28    14    15 1   
    29    14    30 1   
    30    15    16 1   
    31    15    31 1   
    32    15    32 1   
    33    16    33 1   
    34    16    34 1   
    35    16    35 1   
@<TRIPOS>SUBSTRUCTURE
     1 MST         1 TEMP              0 ****  ****    0 ROOT
