@<TRIPOS>MOLECULE
MSU
   16    15     1     0     0
SMALL
bcc


@<TRIPOS>ATOM
      1 C1          0.0170   -0.0150   -0.0030 c         1 MSU      0.913600
      2 O1          0.9650    0.8170   -0.0950 o         1 MSU     -0.843800
      3 C2         -0.7200   -0.1420    1.3470 c3        1 MSU     -0.200400
      4 C3          0.1850    0.2690    2.4840 c3        1 MSU     -0.108400
      5 C4         -0.5560    0.3960    3.7730 c         1 MSU      0.635100
      6 OT1        -1.5290    1.0900    4.0820 o         1 MSU     -0.574000
      7 OT2        -0.0310   -0.3940    4.7750 os        1 MSU     -0.457900
      8 CT         -0.6730   -0.3450    6.0410 c3        1 MSU      0.130700
      9 OXT        -0.3830   -0.7490   -0.9490 o         1 MSU     -0.843800
     10 H21        -1.0650   -1.1970    1.4780 hc        1 MSU      0.036700
     11 H22        -1.6220    0.5190    1.3120 hc        1 MSU      0.036700
     12 H31         0.6420    1.2690    2.2380 hc        1 MSU      0.086700
     13 H32         1.0200   -0.4700    2.5960 hc        1 MSU      0.086700
     14 HT1        -0.6250    0.6900    6.4570 h1        1 MSU      0.034367
     15 HT2        -0.0930   -1.0620    6.6720 h1        1 MSU      0.034367
     16 HT3        -1.7400   -0.6620    5.9450 h1        1 MSU      0.034367
@<TRIPOS>BOND
     1    1    2 1   
     2    1    3 1   
     3    1    9 1   
     4    3    4 1   
     5    3   10 1   
     6    3   11 1   
     7    4    5 1   
     8    4   12 1   
     9    4   13 1   
    10    5    6 2   
    11    5    7 1   
    12    7    8 1   
    13    8   14 1   
    14    8   15 1   
    15    8   16 1   
@<TRIPOS>SUBSTRUCTURE
     1 MSU         1 TEMP              0 ****  ****    0 ROOT
