@<TRIPOS>MOLECULE
molecule
   16    15     1     0     0
SMALL
bcc


@<TRIPOS>ATOM
      1 C1           0.0000     0.0000     0.0000 c          1 MSU       0.890600
      2 O1           1.2080     0.0000     0.0000 o          1 MSU      -0.853300
      3 C2          -0.7540     0.0000     1.3050 c3         1 MSU      -0.174400
      4 C3           0.2400     0.0010     2.4680 c3         1 MSU      -0.104400
      5 C4          -0.5140     0.0010     3.7730 c          1 MSU       0.616100
      6 OT1         -1.7220     0.0010     3.7730 o          1 MSU      -0.567000
      7 OT2          0.1570     0.0010     4.9350 os         1 MSU      -0.442900
      8 CT          -0.6340     0.0010     6.1530 c3         1 MSU       0.137700
      9 OXT         -0.6720     0.0060    -1.1630 o          1 MSU      -0.853300
     10 H21         -1.3770     0.8840     1.3620 hc         1 MSU       0.044700
     11 H22         -1.3760    -0.8850     1.3620 hc         1 MSU       0.044700
     12 H31          0.8620     0.8850     2.4100 hc         1 MSU       0.076700
     13 H32          0.8630    -0.8840     2.4110 hc         1 MSU       0.076700
     14 HT1         -1.2590     0.8850     6.1770 h1         1 MSU       0.036033
     15 HT2          0.0260     0.0010     7.0120 h1         1 MSU       0.036033
     16 HT3         -1.2590    -0.8840     6.1770 h1         1 MSU       0.036033
@<TRIPOS>BOND
     1     1     2 1
     2     1     3 1
     3     1     9 1
     4     3     4 1
     5     3    10 1
     6     3    11 1
     7     4     5 1
     8     4    12 1
     9     4    13 1
    10     5     6 2
    11     5     7 1
    12     7     8 1
    13     8    14 1
    14     8    15 1
    15     8    16 1
@<TRIPOS>SUBSTRUCTURE
     1 MSU         1 TEMP              0 ****  ****    0 ROOT
