@<TRIPOS>MOLECULE
MSW
   39    39     1     0     0
SMALL
bcc


@<TRIPOS>ATOM
      1 PAY          0.0000     0.0000     0.0000 p5         1 MSW       0.641600
      2 CAN          1.8230     0.0000     0.0000 c3         1 MSW      -0.030600
      3 CAM          2.3320     0.0000     1.4430 c3         1 MSW       0.012600
      4 CAA          3.8620    -0.0000     1.4430 c3         1 MSW      -0.001100
      5 OAF         -0.4940     1.1430     0.8010 o          1 MSW      -0.656500
      6 OAT         -0.5370     0.1330    -1.5130 os         1 MSW      -0.492200
      7 CAX         -1.9210     0.2650    -1.8380 c3         1 MSW       0.309400
      8 CAO         -2.3510    -0.9030    -2.7280 c3         1 MSW       0.037000
      9 NAQ         -2.2490    -2.1540    -1.9740 ns         1 MSW      -0.161900
     10 CAU         -2.5770    -3.3220    -2.5600 c          1 MSW       0.668100
     11 OAE         -2.9600    -3.3380    -3.7130 o          1 MSW      -0.714000
     12 OAR         -2.4840    -4.4720    -1.8670 os         1 MSW      -0.416900
     13 CAB         -2.8550    -5.6930    -2.5600 c3         1 MSW       0.285700
     14 CAV         -2.1430     1.5640    -2.5720 ca         1 MSW      -0.078300
     15 CAK         -3.2630     2.3280    -2.3020 ca         1 MSW      -0.076000
     16 CAI         -3.4660     3.5180    -2.9750 ca         1 MSW      -0.120500
     17 CAH         -2.5490     3.9450    -3.9180 ca         1 MSW      -0.122000
     18 CAJ         -1.4280     3.1800    -4.1880 ca         1 MSW      -0.120500
     19 CAL         -1.2230     1.9930    -3.5100 ca         1 MSW      -0.076000
     20 H1           2.1840     0.8850    -0.5110 hc         1 MSW       0.012200
     21 H2           2.1840    -0.8850    -0.5110 hc         1 MSW       0.012200
     22 H3           1.9700    -0.8840     1.9530 hc         1 MSW       0.023700
     23 H4           1.9710     0.8850     1.9530 hc         1 MSW       0.023700
     24 H5           4.2240     0.8840     0.9320 hc         1 MSW      -0.015967
     25 H6           4.2230     0.0010     2.4650 hc         1 MSW      -0.015967
     26 H7           4.2240    -0.8850     0.9340 hc         1 MSW      -0.015967
     27 H9          -2.5080     0.2600    -0.9280 h1         1 MSW       0.023700
     28 H10         -1.7060    -0.9510    -3.5970 h1         1 MSW       0.015700
     29 H11         -3.3760    -0.7560    -3.0470 h1         1 MSW       0.015700
     30 H12         -1.9620    -2.1380    -1.0160 hn         1 MSW       0.240500
     31 H13         -3.8890    -5.6280    -2.8770 h1         1 MSW      -0.011300
     32 H14         -2.7340    -6.5380    -1.8940 h1         1 MSW      -0.011300
     33 H15         -2.2190    -5.8230    -3.4280 h1         1 MSW      -0.011300
     34 H16         -3.9810     1.9950    -1.5630 ha         1 MSW       0.111000
     35 H17         -4.3430     4.1170    -2.7630 ha         1 MSW       0.089000
     36 H18         -2.7090     4.8770    -4.4470 ha         1 MSW       0.086000
     37 H19         -0.7080     3.5150    -4.9250 ha         1 MSW       0.089000
     38 H20         -0.3450     1.3940    -3.7210 ha         1 MSW       0.111000
     39 O3P         -0.5380    -1.3760     0.6410 o          1 MSW      -0.656500
@<TRIPOS>BOND
     1     1     2 1   
     2     1     5 1   
     3     1     6 1   
     4     1    39 1   
     5     2     3 1   
     6     2    20 1   
     7     2    21 1   
     8     3     4 1   
     9     3    22 1   
    10     3    23 1   
    11     4    24 1   
    12     4    25 1   
    13     4    26 1   
    14     6     7 1   
    15     7     8 1   
    16     7    14 1   
    17     7    27 1   
    18     8     9 1   
    19     8    28 1   
    20     8    29 1   
    21     9    10 1   
    22     9    30 1   
    23    10    11 2   
    24    10    12 1   
    25    12    13 1   
    26    13    31 1   
    27    13    32 1   
    28    13    33 1   
    29    14    15 ar  
    30    14    19 ar  
    31    15    16 ar  
    32    15    34 1   
    33    16    17 ar  
    34    16    35 1   
    35    17    18 ar  
    36    17    36 1   
    37    18    19 ar  
    38    18    37 1   
    39    19    38 1   
@<TRIPOS>SUBSTRUCTURE
     1 MSW         1 TEMP              0 ****  ****    0 ROOT
