@<TRIPOS>MOLECULE
molecule
   27    27     1     0     0
SMALL
bcc


@<TRIPOS>ATOM
      1 O3           0.0000     0.0000     0.0000 oh         1 MSX      -0.599800
      2 C6           1.4290     0.0000     0.0000 c3         1 MSX       0.126100
      3 C            1.9410     0.0000     1.4430 c3         1 MSX       0.108100
      4 O            3.3690     0.0670     1.4430 oh         1 MSX      -0.585800
      5 C5           1.9420    -1.2550    -0.7130 c3         1 MSX       0.126100
      6 O2           1.4100    -1.3010    -2.0380 oh         1 MSX      -0.590800
      7 C3           1.4900    -2.4940     0.0640 c3         1 MSX       0.226200
      8 S1           2.1520    -3.9820    -0.7330 ss         1 MSX      -0.310200
      9 C4           1.2790    -5.3250     0.1190 c3         1 MSX       0.004000
     10 O1           1.9730    -2.4170     1.4070 os         1 MSX      -0.382600
     11 C1           1.4890    -1.2880     2.1370 c3         1 MSX       0.149100
     12 C2          -0.0390    -1.3310     2.1870 c3         1 MSX       0.000700
     13 S           -0.5730    -2.7540     3.1780 sh         1 MSX      -0.417900
     14 H3          -0.3140     0.7270    -0.5110 ho         1 MSX       0.410000
     15 H6           1.7960     0.8810    -0.5130 h1         1 MSX       0.048700
     16 H            1.5340     0.8550     1.9700 h1         1 MSX       0.043700
     17 H5           3.0240    -1.2290    -0.7530 h1         1 MSX       0.075700
     18 HA           3.6490     0.7930     1.9740 ho         1 MSX       0.405000
     19 H1           1.8890    -1.3130     3.1430 h1         1 MSX       0.097700
     20 H2           2.1160    -1.2570    -2.6620 ho         1 MSX       0.408000
     21 HB           0.4070    -2.5360     0.0740 h2         1 MSX       0.080700
     22 H41C         0.2120    -5.1440     0.0800 h1         1 MSX       0.065033
     23 H42C         1.5040    -6.2670    -0.3660 h1         1 MSX       0.065033
     24 H43C         1.6010    -5.3660     1.1530 h1         1 MSX       0.065033
     25 H21C        -0.4120    -0.4180     2.6360 h1         1 MSX       0.084700
     26 H22C        -0.4310    -1.4240     1.1810 h1         1 MSX       0.084700
     27 HS          -1.6700    -2.4360     3.8550 hs         1 MSX       0.211800
@<TRIPOS>BOND
     1     1     2 1
     2     2     3 1
     3     2     5 1
     4     3     4 1
     5     3    11 1
     6     5     6 1
     7     5     7 1
     8     7     8 1
     9     7    10 1
    10     8     9 1
    11    10    11 1
    12    11    12 1
    13    12    13 1
    14     1    14 1
    15     2    15 1
    16     3    16 1
    17     5    17 1
    18     4    18 1
    19    11    19 1
    20     6    20 1
    21     7    21 1
    22     9    22 1
    23     9    23 1
    24     9    24 1
    25    12    25 1
    26    12    26 1
    27    13    27 1
@<TRIPOS>SUBSTRUCTURE
     1 MSX         1 TEMP              0 ****  ****    0 ROOT
