@<TRIPOS>MOLECULE
MSX
   27    27     1     0     0
SMALL
bcc


@<TRIPOS>ATOM
      1 O3         -0.0050    0.2330    0.0460 oh        1 MSX     -0.605800
      2 C6          1.3970    0.0680    0.1630 c3        1 MSX      0.120100
      3 C           1.7120   -0.0960    1.6610 c3        1 MSX      0.118100
      4 O           3.0740    0.2120    1.8910 oh        1 MSX     -0.583800
      5 C5          1.8960   -1.1360   -0.6580 c3        1 MSX      0.091100
      6 O2          1.3020   -0.9960   -1.9380 oh        1 MSX     -0.604800
      7 C3          1.4960   -2.4570    0.0040 c3        1 MSX      0.172200
      8 S1          2.3410   -3.7800   -0.8420 ss        1 MSX     -0.274200
      9 C4          1.4890   -5.2100   -0.2920 c3        1 MSX     -0.037000
     10 O1          1.9320   -2.5060    1.3550 os        1 MSX     -0.399600
     11 C1          1.3800   -1.4960    2.2000 c3        1 MSX      0.099100
     12 C2         -0.1070   -1.7040    2.4180 c3        1 MSX     -0.038300
     13 S          -0.6640   -1.1310    3.9890 sh        1 MSX     -0.352900
     14 H3         -0.2040    0.2800   -0.8990 ho        1 MSX      0.431000
     15 H6          1.9150    0.9930   -0.2190 h1        1 MSX      0.068700
     16 H           1.1410    0.6830    2.2410 h1        1 MSX      0.097700
     17 H5          3.0180   -1.0840   -0.7460 h1        1 MSX      0.065700
     18 HA          3.5970   -0.5220    1.5390 ho        1 MSX      0.411000
     19 H1          1.9390   -1.6580    3.1710 h1        1 MSX      0.110700
     20 H2          1.5260   -1.7900   -2.4430 ho        1 MSX      0.427000
     21 HB          0.3840   -2.5930   -0.0450 h2        1 MSX      0.076700
     22 H41C        2.0070   -6.0760   -0.7680 h1        1 MSX      0.071700
     23 H42C        1.5400   -5.3170    0.8150 h1        1 MSX      0.071700
     24 H43C        0.4210   -5.2040   -0.6050 h1        1 MSX      0.071700
     25 H21C       -0.3250   -2.8030    2.4210 h1        1 MSX      0.095200
     26 H22C       -0.6920   -1.2330    1.5890 h1        1 MSX      0.095200
     27 HS         -0.7010    0.1700    3.7550 hs        1 MSX      0.202800
@<TRIPOS>BOND
     1    1    2 1   
     2    1   14 1   
     3    2    3 1   
     4    2    5 1   
     5    2   15 1   
     6    3    4 1   
     7    3   11 1   
     8    3   16 1   
     9    4   18 1   
    10    5    6 1   
    11    5    7 1   
    12    5   17 1   
    13    6   20 1   
    14    7    8 1   
    15    7   10 1   
    16    7   21 1   
    17    8    9 1   
    18    9   22 1   
    19    9   23 1   
    20    9   24 1   
    21   10   11 1   
    22   11   12 1   
    23   11   19 1   
    24   12   13 1   
    25   12   25 1   
    26   12   26 1   
    27   13   27 1   
@<TRIPOS>SUBSTRUCTURE
     1 MSX         1 TEMP              0 ****  ****    0 ROOT
