@<TRIPOS>MOLECULE
MSY
   29    30     1     0     0
SMALL
bcc


@<TRIPOS>ATOM
      1 N            0.0000     0.0000     0.0000 nz         1 MSY      -0.132500
      2 S            1.6550     0.0000     0.0000 sy         1 MSY       0.932200
      3 O1           2.0560     0.0000     1.3640 o          1 MSY      -0.495300
      4 O2           2.0570    -0.9980    -0.9280 o          1 MSY      -0.495300
      5 CA1          2.1770     1.5430    -0.6720 ca         1 MSY      -0.197500
      6 CA2          2.3760     1.6700    -2.0320 ca         1 MSY      -0.032000
      7 CA3          2.7880     2.8870    -2.5610 ca         1 MSY      -0.045400
      8 CA4          2.9970     3.9720    -1.7200 ca         1 MSY      -0.057000
      9 CA5          2.7960     3.8380    -0.3600 ca         1 MSY      -0.072000
     10 CA6          2.3810     2.6270     0.1630 ca         1 MSY      -0.023000
     11 NB1          2.9910     3.0200    -3.9400 n          1 MSY       0.220000
     12 NB2          2.8090     1.9970    -4.8650 n2         1 MSY      -0.565300
     13 CP3          3.0550     2.3530    -6.0640 c2         1 MSY       0.393300
     14 CP4          3.4670     3.8100    -6.0210 c3         1 MSY      -0.201700
     15 CP5          3.3840     4.1590    -4.5480 c          1 MSY       0.605500
     16 OPY          3.6250     5.2280    -4.0270 o          1 MSY      -0.608500
     17 HN          -0.3340     0.0860    -0.9400 hn         1 MSY       0.313467
     18 HNA         -0.3340    -0.8570     0.3950 hn         1 MSY       0.313467
     19 HA2          2.2620     0.8090    -2.6790 ha         1 MSY       0.151000
     20 HA4          3.2630     4.9360    -2.1360 ha         1 MSY       0.178000
     21 HA5          2.9630     4.6830     0.2970 ha         1 MSY       0.133000
     22 HA6          2.2200     2.5260     1.2290 ha         1 MSY       0.126000
     23 HME          3.5240     1.9370    -8.0980 hc         1 MSY       0.027700
     24 HMEA         3.3520     0.5040    -7.0760 hc         1 MSY       0.027700
     25 HMEB         1.9170     1.4010    -7.5900 hc         1 MSY       0.027700
     26 HP4          4.4810     3.9290    -6.3830 hc         1 MSY       0.079700
     27 HP4A         2.7760     4.4170    -6.5940 hc         1 MSY       0.079700
     28 CME          2.9550     1.4880    -7.2930 c3         1 MSY       0.006600
     29 HN3         -0.3340     0.7710     0.5440 hn         1 MSY       0.313467
@<TRIPOS>BOND
     1     1     2 1   
     2     1    17 1   
     3     1    18 1   
     4     1    29 1   
     5     2     3 2   
     6     2     4 2   
     7     2     5 1   
     8     5     6 ar  
     9     5    10 ar  
    10     6     7 ar  
    11     6    19 1   
    12     7     8 ar  
    13     7    11 1   
    14     8     9 ar  
    15     8    20 1   
    16     9    10 ar  
    17     9    21 1   
    18    10    22 1   
    19    11    12 1   
    20    11    15 1   
    21    12    13 2   
    22    13    14 1   
    23    13    28 1   
    24    14    15 1   
    25    14    26 1   
    26    14    27 1   
    27    15    16 2   
    28    23    28 1   
    29    24    28 1   
    30    25    28 1   
@<TRIPOS>SUBSTRUCTURE
     1 MSY         1 TEMP              0 ****  ****    0 ROOT
