@<TRIPOS>MOLECULE
molecule
   29    30     1     0     0
SMALL
bcc


@<TRIPOS>ATOM
      1 N            0.0000     0.0000     0.0000 nz         1 MSY      -0.806500
      2 S            1.6550     0.0000     0.0000 sy         1 MSY       1.225200
      3 O1           2.0560     0.0000     1.3640 o          1 MSY      -0.518300
      4 O2           2.0570    -0.9980    -0.9280 o          1 MSY      -0.518300
      5 CA1          2.1770     1.5430    -0.6720 ca         1 MSY      -0.316500
      6 CA2          2.3760     1.6700    -2.0320 ca         1 MSY      -0.066000
      7 CA3          2.7880     2.8870    -2.5610 ca         1 MSY       0.103600
      8 CA4          2.9970     3.9720    -1.7200 ca         1 MSY      -0.075000
      9 CA5          2.7960     3.8380    -0.3600 ca         1 MSY      -0.102000
     10 CA6          2.3810     2.6270     0.1630 ca         1 MSY      -0.061000
     11 NB1          2.9910     3.0200    -3.9400 n          1 MSY      -0.158000
     12 NB2          2.8090     1.9970    -4.8650 n2         1 MSY      -0.470300
     13 CP3          3.0550     2.3530    -6.0640 c2         1 MSY       0.382300
     14 CP4          3.4670     3.8100    -6.0210 c3         1 MSY      -0.263700
     15 CP5          3.3840     4.1590    -4.5480 c          1 MSY       0.688500
     16 OPY          3.6250     5.2280    -4.0270 o          1 MSY      -0.573500
     17 HN          -0.3340     0.0860    -0.9400 hn         1 MSY       0.491800
     18 HNA         -0.3340    -0.8570     0.3950 hn         1 MSY       0.491800
     19 HA2          2.2620     0.8090    -2.6790 ha         1 MSY       0.177000
     20 HA4          3.2630     4.9360    -2.1360 ha         1 MSY       0.207000
     21 HA5          2.9630     4.6830     0.2970 ha         1 MSY       0.170000
     22 HA6          2.2200     2.5260     1.2290 ha         1 MSY       0.154000
     23 HME          3.5240     1.9370    -8.0980 hc         1 MSY       0.071367
     24 HMEA         3.3520     0.5040    -7.0760 hc         1 MSY       0.071367
     25 HMEB         1.9170     1.4010    -7.5900 hc         1 MSY       0.071367
     26 HP4          4.4810     3.9290    -6.3830 hc         1 MSY       0.118700
     27 HP4A         2.7760     4.4170    -6.5940 hc         1 MSY       0.118700
     28 CME          2.9550     1.4880    -7.2930 c3         1 MSY      -0.103400
     29 HN3         -0.3340     0.7710     0.5440 hn         1 MSY       0.491800
@<TRIPOS>BOND
     1     2     1 1
     2     1    17 1
     3     1    18 1
     4     4     2 2
     5     5     2 1
     6     2     3 2
     7     6     5 ar
     8     5    10 ar
     9     7     6 ar
    10     6    19 1
    11    11     7 1
    12     7     8 ar
    13     8     9 ar
    14     8    20 1
    15     9    10 ar
    16     9    21 1
    17    10    22 1
    18    15    11 1
    19    12    11 1
    20    13    12 2
    21    28    13 1
    22    28    23 1
    23    28    24 1
    24    28    25 1
    25    14    13 1
    26    14    15 1
    27    14    26 1
    28    14    27 1
    29    15    16 2
    30    29     1 1
@<TRIPOS>SUBSTRUCTURE
     1 MSY         1 TEMP              0 ****  ****    0 ROOT
