@<TRIPOS>MOLECULE
molecule
   31    32     1     0     0
SMALL
bcc


@<TRIPOS>ATOM
      1 C16          0.0000     0.0000     0.0000 ca         1 MSZ      -0.179000
      2 C13          1.3870     0.0000     0.0000 ca         1 MSZ       0.185100
      3 C14          2.0790     0.0000     1.2030 ca         1 MSZ      -0.132000
      4 C15          1.3840     0.0010     2.3970 ca         1 MSZ      -0.159300
      5 C18          0.0010     0.0010     2.3940 ca         1 MSZ      -0.148000
      6 C17         -0.6900     0.0080     1.1970 ca         1 MSZ      -0.100000
      7 C19          2.1340     0.0020     3.7050 c3         1 MSZ       0.679200
      8 F22          1.3750    -0.6580     4.6780 f          1 MSZ      -0.232967
      9 F21          3.3570    -0.6590     3.5410 f          1 MSZ      -0.232967
     10 O12          2.0680    -0.0020    -1.1760 os         1 MSZ      -0.298900
     11 C8           1.2960     0.1190    -2.3730 c3         1 MSZ       0.057400
     12 C9           0.8000    -1.2410    -2.7900 c          1 MSZ       0.857600
     13 O10          0.0480    -1.3710    -3.8950 o          1 MSZ      -0.814800
     14 O11          1.0780    -2.2150    -2.1300 o          1 MSZ      -0.814800
     15 C2           3.7300     1.7620    -5.4760 ca         1 MSZ       0.055400
     16 C4           2.8850     2.5840    -4.7510 ca         1 MSZ      -0.161000
     17 C3           2.3790     2.1560    -3.5340 ca         1 MSZ      -0.045500
     18 C7           2.1550     0.6990    -3.4670 ca         1 MSZ      -0.063300
     19 C6           2.4490    -0.0980    -4.5620 ca         1 MSZ      -0.045500
     20 C5           4.0690     0.5110    -4.9860 ca         1 MSZ      -0.161000
     21 H1          -0.5410    -0.0410    -0.9370 ha         1 MSZ       0.167000
     22 H2           3.1620     0.0170     1.2040 ha         1 MSZ       0.149000
     23 H3          -0.5420     0.0250     3.3310 ha         1 MSZ       0.128000
     24 H4          -1.7730     0.0090     1.1980 ha         1 MSZ       0.127000
     25 H5           0.4510     0.7730    -2.1920 h1         1 MSZ       0.042700
     26 H7           2.6280     3.5650    -5.1300 ha         1 MSZ       0.126500
     27 H8           1.8350     2.8470    -2.9010 ha         1 MSZ       0.157500
     28 H9           2.4560    -1.1760    -4.4490 ha         1 MSZ       0.157500
     29 H10          4.6040    -0.1780    -5.6290 ha         1 MSZ       0.126500
     30 F20          2.3070     1.2880     4.1290 f          1 MSZ      -0.232967
     31 Cl           4.3440     2.2930    -7.0650 cl         1 MSZ      -0.197400
@<TRIPOS>BOND
     1    14    12 1
     2     6     1 ar
     3     6     5 ar
     4     1     2 ar
     5    12    13 1
     6    12    11 1
     7     5     4 ar
     8    10     2 1
     9    10    11 1
    10     2     3 ar
    11    11    18 1
    12     4     3 ar
    13     4     7 1
    14    17    18 ar
    15    17    16 ar
    16     9     7 1
    17    18    19 ar
    18    16    15 ar
    19     7    30 1
    20     7     8 1
    21    19    20 ar
    22    15    20 ar
    23    15    31 1
    24     1    21 1
    25     3    22 1
    26     5    23 1
    27     6    24 1
    28    11    25 1
    29    16    26 1
    30    17    27 1
    31    19    28 1
    32    20    29 1
@<TRIPOS>SUBSTRUCTURE
     1 MSZ         1 TEMP              0 ****  ****    0 ROOT
