@<TRIPOS>MOLECULE
MSZ
   31    32     1     0     0
SMALL
bcc


@<TRIPOS>ATOM
      1 C16        -0.1630   -0.2280    0.0530 ca        1 MSZ     -0.167000
      2 C13         1.2290   -0.0720   -0.0670 ca        1 MSZ      0.157100
      3 C14         2.0360    0.0170    1.0870 ca        1 MSZ     -0.137000
      4 C15         1.4320   -0.0430    2.3390 ca        1 MSZ     -0.149300
      5 C18         0.0480   -0.1870    2.4680 ca        1 MSZ     -0.147000
      6 C17        -0.7360   -0.2820    1.3200 ca        1 MSZ     -0.108000
      7 C19         2.2860    0.0740    3.5910 c3        1 MSZ      0.687200
      8 F22         1.8350   -0.6500    4.6720 f         1 MSZ     -0.249967
      9 F21         3.5930   -0.3320    3.4540 f         1 MSZ     -0.249967
     10 O12         1.9180   -0.0180   -1.2500 os        1 MSZ     -0.315900
     11 C8          1.1360    0.2510   -2.4420 c3        1 MSZ      0.040400
     12 C9          0.3810   -1.0340   -2.9260 c         1 MSZ      0.910600
     13 O10        -0.8770   -0.9410   -2.9420 o         1 MSZ     -0.810300
     14 O11         1.0480   -2.0470   -3.2510 o         1 MSZ     -0.810300
     15 C2          3.9490    1.6680   -5.3480 ca        1 MSZ      0.012400
     16 C4          2.9790    2.5390   -4.8470 ca        1 MSZ     -0.144500
     17 C3          2.0710    2.0740   -3.8960 ca        1 MSZ     -0.096000
     18 C7          2.1220    0.7490   -3.4520 ca        1 MSZ     -0.046300
     19 C6          3.0930   -0.1170   -3.9730 ca        1 MSZ     -0.096000
     20 C5          4.0090    0.3390   -4.9190 ca        1 MSZ     -0.144500
     21 H1         -0.7900   -0.3400   -0.8550 ha        1 MSZ      0.209000
     22 H2          3.1260    0.1190    0.9830 ha        1 MSZ      0.155000
     23 H3         -0.4080   -0.2360    3.4670 ha        1 MSZ      0.131000
     24 H4         -1.8250   -0.4110    1.4140 ha        1 MSZ      0.131000
     25 H5          0.3810    1.0510   -2.2050 h1        1 MSZ      0.046700
     26 H7          2.9310    3.5800   -5.1950 ha        1 MSZ      0.132000
     27 H8          1.3050    2.7570   -3.5000 ha        1 MSZ      0.161000
     28 H9          3.0870   -1.1720   -3.6390 ha        1 MSZ      0.161000
     29 H10         4.7670   -0.3450   -5.3260 ha        1 MSZ      0.132000
     30 F20         2.3980    1.3520    4.0910 f         1 MSZ     -0.249967
     31 CL          5.0730    2.2360   -6.5050 cl        1 MSZ     -0.143400
@<TRIPOS>BOND
     1    1    2 ar  
     2    1    6 ar  
     3    1   21 1   
     4    2    3 ar  
     5    2   10 1   
     6    3    4 ar  
     7    3   22 1   
     8    4    5 ar  
     9    4    7 1   
    10    5    6 ar  
    11    5   23 1   
    12    6   24 1   
    13    7    8 1   
    14    7    9 1   
    15    7   30 1   
    16   10   11 1   
    17   11   12 1   
    18   11   18 1   
    19   11   25 1   
    20   12   13 1   
    21   12   14 1   
    22   15   16 ar  
    23   15   20 ar  
    24   15   31 1   
    25   16   17 ar  
    26   16   26 1   
    27   17   18 ar  
    28   17   27 1   
    29   18   19 ar  
    30   19   20 ar  
    31   19   28 1   
    32   20   29 1   
@<TRIPOS>SUBSTRUCTURE
     1 MSZ         1 TEMP              0 ****  ****    0 ROOT
