@<TRIPOS>MOLECULE
MT0
   19    20     1     0     0
SMALL
bcc


@<TRIPOS>ATOM
      1 C1          0.0210   -0.0000    0.0200 c3        1 MT0     -0.152400
      2 C2          1.5120    0.0010    0.0360 ca        1 MT0      0.383600
      3 N3          2.1720   -0.0010    1.2130 nb        1 MT0     -0.316000
      4 N4          3.4610   -0.0000    1.2800 nb        1 MT0     -0.304000
      5 C5          4.2230    0.0020    0.1670 ca        1 MT0      0.442300
      6 CL6         5.9200    0.0030    0.3410 cl        1 MT0     -0.131000
      7 C7          3.6480    0.0030   -1.1550 ca        1 MT0     -0.118300
      8 C8          4.3990    0.0050   -2.3550 ca        1 MT0     -0.103000
      9 C9          3.7550    0.0070   -3.5710 ca        1 MT0     -0.114000
     10 C10         2.3430    0.0060   -3.6360 ca        1 MT0     -0.112000
     11 C11         1.5920    0.0040   -2.4830 ca        1 MT0     -0.111000
     12 C12         2.2280    0.0030   -1.2180 ca        1 MT0     -0.125300
     13 H11C       -0.4110   -0.0020    1.0520 hc        1 MT0      0.060700
     14 H12C       -0.3450   -0.9100   -0.5190 hc        1 MT0      0.060700
     15 H13C       -0.3450    0.9100   -0.5160 hc        1 MT0      0.060700
     16 H8          5.4990    0.0060   -2.3040 ha        1 MT0      0.153000
     17 H9          4.3340    0.0080   -4.5080 ha        1 MT0      0.142000
     18 H10         1.8520    0.0070   -4.6210 ha        1 MT0      0.141000
     19 H11         0.4920    0.0030   -2.5290 ha        1 MT0      0.144000
@<TRIPOS>BOND
     1    1    2 1   
     2    1   13 1   
     3    1   14 1   
     4    1   15 1   
     5    2    3 ar  
     6    2   12 ar  
     7    3    4 ar  
     8    4    5 ar  
     9    5    6 1   
    10    5    7 ar  
    11    7    8 ar  
    12    7   12 ar  
    13    8    9 ar  
    14    8   16 1   
    15    9   10 ar  
    16    9   17 1   
    17   10   11 ar  
    18   10   18 1   
    19   11   12 ar  
    20   11   19 1   
@<TRIPOS>SUBSTRUCTURE
     1 MT0         1 TEMP              0 ****  ****    0 ROOT
