@<TRIPOS>MOLECULE
molecule
   19    20     1     0     0
SMALL
bcc


@<TRIPOS>ATOM
      1 C1           0.0000     0.0000     0.0000 c3         1 MT0      -0.139400
      2 C2           1.5070     0.0000     0.0000 ca         1 MT0       0.382600
      3 N3           2.1750     0.0000     1.1320 nb         1 MT0      -0.313000
      4 N4           3.4540     0.0010     1.1960 nb         1 MT0      -0.311000
      5 C5           4.2320     0.0020     0.1350 ca         1 MT0       0.463300
      6 Cl6          5.9600     0.0030     0.3070 cl         1 MT0      -0.139000
      7 C7           3.6400     0.0030    -1.1410 ca         1 MT0      -0.129300
      8 C8           4.3890     0.0060    -2.3240 ca         1 MT0      -0.102000
      9 C9           3.7430     0.0070    -3.5250 ca         1 MT0      -0.112000
     10 C10          2.3520     0.0060    -3.5940 ca         1 MT0      -0.110000
     11 C11          1.5910     0.0040    -2.4620 ca         1 MT0      -0.108000
     12 C12          2.2210    -0.0040    -1.2100 ca         1 MT0      -0.130300
     13 H11C        -0.3610     0.8850    -0.5100 hc         1 MT0       0.059033
     14 H12C        -0.3610    -0.8840    -0.5120 hc         1 MT0       0.059033
     15 H13C        -0.3610    -0.0010     1.0210 hc         1 MT0       0.059033
     16 H8           5.4720     0.0070    -2.2860 ha         1 MT0       0.152000
     17 H9           4.3220     0.0090    -4.4410 ha         1 MT0       0.138000
     18 H10          1.8660     0.0070    -4.5620 ha         1 MT0       0.137000
     19 H11          0.5100     0.0040    -2.5300 ha         1 MT0       0.144000
@<TRIPOS>BOND
     1     1     2 1
     2     2     3 ar
     3     2    12 ar
     4     3     4 ar
     5     4     5 ar
     6     5     6 1
     7     5     7 ar
     8     7     8 ar
     9     7    12 ar
    10     8     9 ar
    11     9    10 ar
    12    10    11 ar
    13    11    12 ar
    14     1    13 1
    15     1    14 1
    16     1    15 1
    17     8    16 1
    18     9    17 1
    19    10    18 1
    20    11    19 1
@<TRIPOS>SUBSTRUCTURE
     1 MT0         1 TEMP              0 ****  ****    0 ROOT
