@<TRIPOS>MOLECULE
MT1
   54    56     1     0     0
SMALL
bcc


@<TRIPOS>ATOM
      1 N1           0.0000     0.0000     0.0000 na         1 MT1       0.172300
      2 C2           1.3360     0.0000     0.0000 ca         1 MT1       0.315000
      3 NA2          1.9410     0.0010    -1.2700 nv         1 MT1      -0.181900
      4 N3           2.1050     0.0000     1.0970 nb         1 MT1      -0.595000
      5 C4           1.4100    -0.0000     2.2530 ca         1 MT1       0.468900
      6 NA4          2.1570    -0.0000     3.4600 nv         1 MT1      -0.532500
      7 C4A          0.0260    -0.0010     2.3540 ca         1 MT1       0.150000
      8 N5          -0.5950    -0.0010     3.5470 nb         1 MT1      -0.480000
      9 C6          -1.9350    -0.0010     3.5340 ca         1 MT1       0.253300
     10 C7          -2.6630    -0.0010     2.3790 ca         1 MT1       0.381900
     11 N8          -2.0610    -0.0000     1.1760 nb         1 MT1      -0.565000
     12 C8A         -0.7050    -0.0000     1.1520 ca         1 MT1       0.218500
     13 C9          -2.6320    -0.0030     4.8640 c3         1 MT1       0.140500
     14 N10         -2.0420     0.9480     5.7860 nh         1 MT1      -0.403000
     15 CM          -1.4620     0.4650     7.0220 c3         1 MT1       0.221100
     16 C11         -2.0500     5.0230     4.9100 ca         1 MT1      -0.145600
     17 C12         -1.1560     4.5450     5.8450 ca         1 MT1      -0.013500
     18 C13         -1.1540     3.1820     6.1390 ca         1 MT1      -0.196500
     19 C14         -2.0440     2.3270     5.4890 ca         1 MT1       0.037600
     20 C15         -2.9380     2.8360     4.5470 ca         1 MT1      -0.196500
     21 C16         -2.9410     4.1990     4.2540 ca         1 MT1      -0.013500
     22 O           -1.6570     7.2730     5.4440 o          1 MT1      -0.713100
     23 N           -2.4910     6.8060     3.3340 ns         1 MT1      -0.103900
     24 CA          -2.5290     8.1900     2.8670 c3         1 MT1      -0.092300
     25 CT          -3.7250     8.3440     1.9450 c          1 MT1       0.983600
     26 O1          -4.3600     7.1620     1.7350 o          1 MT1      -0.882300
     27 O2          -4.0990     9.3940     1.4380 o          1 MT1      -0.882300
     28 CB          -1.2150     8.6100     2.1890 c3         1 MT1      -0.000400
     29 CG          -0.8800     7.9070     0.8700 c3         1 MT1      -0.108400
     30 CD          -0.6520     6.4230     1.0090 c          1 MT1       0.984600
     31 OE1         -1.2650     5.5740     0.3720 o          1 MT1      -0.822300
     32 OE2          0.3180     6.1230     1.9070 o          1 MT1      -0.822300
     33 H           -2.7970     6.0770     2.7200 hn         1 MT1       0.224500
     34 H1          -0.4890     0.0040    -0.8730 hn         1 MT1       0.147700
     35 HA21         2.4430     0.8080    -1.5840 hn         1 MT1       0.143200
     36 HA22         1.8780    -0.8080    -1.8550 hn         1 MT1       0.143200
     37 HA41         2.7650     0.7660     3.6720 hn         1 MT1       0.290300
     38 HA42         2.0660    -0.7590     4.1050 hn         1 MT1       0.290300
     39 H7          -3.7450    -0.0010     2.4320 h4         1 MT1       0.007100
     40 H91         -2.5690    -0.9950     5.2930 h1         1 MT1       0.025700
     41 H92         -3.6750     0.2510     4.7160 h1         1 MT1       0.025700
     42 HM1         -1.7220    -0.5780     7.1600 h1         1 MT1      -0.002300
     43 HM2         -0.3840     0.5650     6.9790 h1         1 MT1      -0.002300
     44 HM3         -1.8460     1.0450     7.8520 h1         1 MT1      -0.002300
     45 H12         -0.4690     5.2180     6.3440 ha         1 MT1       0.135000
     46 H13         -0.4590     2.7870     6.8700 ha         1 MT1       0.096500
     47 H15         -3.6300     2.1720     4.0430 ha         1 MT1       0.096500
     48 H16         -3.6320     4.6040     3.5240 ha         1 MT1       0.135000
     49 HA          -2.6810     8.8320     3.7270 h1         1 MT1       0.032700
     50 HB1         -1.2600     9.6750     1.9990 hc         1 MT1       0.009700
     51 HB2         -0.4040     8.4230     2.8830 hc         1 MT1       0.009700
     52 HG1          0.0160     8.3560     0.4570 hc         1 MT1       0.016200
     53 HG2         -1.6970     8.0670     0.1770 hc         1 MT1       0.016200
     54 C           -2.0520     6.4760     4.5970 c          1 MT1       0.580700
@<TRIPOS>BOND
     1     1     2 1   
     2     1    12 2   
     3     1    34 1   
     4     2     3 1   
     5     2     4 ar  
     6     3    35 1   
     7     3    36 1   
     8     4     5 ar  
     9     5     6 1   
    10     5     7 ar  
    11     6    37 1   
    12     6    38 1   
    13     7     8 ar  
    14     7    12 ar  
    15     8     9 ar  
    16     9    10 ar  
    17     9    13 1   
    18    10    11 ar  
    19    10    39 1   
    20    11    12 ar  
    21    13    14 1   
    22    13    40 1   
    23    13    41 1   
    24    14    15 1   
    25    14    19 1   
    26    15    42 1   
    27    15    43 1   
    28    15    44 1   
    29    16    17 ar  
    30    16    21 ar  
    31    16    54 1   
    32    17    18 ar  
    33    17    45 1   
    34    18    19 ar  
    35    18    46 1   
    36    19    20 ar  
    37    20    21 ar  
    38    20    47 1   
    39    21    48 1   
    40    22    54 2   
    41    23    24 1   
    42    23    33 1   
    43    23    54 1   
    44    24    25 1   
    45    24    28 1   
    46    24    49 1   
    47    25    26 1   
    48    25    27 1   
    49    28    29 1   
    50    28    50 1   
    51    28    51 1   
    52    29    30 1   
    53    29    52 1   
    54    29    53 1   
    55    30    31 1   
    56    30    32 1   
@<TRIPOS>SUBSTRUCTURE
     1 MT1         1 TEMP              0 ****  ****    0 ROOT
