@<TRIPOS>MOLECULE
molecule
   61    65     1     0     0
SMALL
bcc


@<TRIPOS>ATOM
      1 N1           0.0000     0.0000     0.0000 n          1 MT3      -0.348300
      2 N3           9.6820    -1.7930    -1.6110 nb         1 MT3      -0.712000
      3 C4          -3.6850    -0.0200     5.1360 ca         1 MT3      -0.121000
      4 C5          -3.4410     1.1790     4.4930 ca         1 MT3      -0.124500
      5 C6          -2.9560     1.1840     3.1990 ca         1 MT3      -0.108500
      6 C7           2.0260     0.0000     1.2490 cc         1 MT3      -0.242400
      7 C8           1.3490     0.0000     0.0000 c          1 MT3       0.693700
      8 C10          1.2660    -0.0000     2.4060 cd         1 MT3       0.173600
      9 C13          4.1820    -1.0950     1.8530 ca         1 MT3      -0.152000
     10 C15          4.2270     1.0910     0.8330 ca         1 MT3      -0.106000
     11 C17          9.7190    -0.7230     0.5200 ca         1 MT3      -0.161300
     12 C20         12.4780    -1.0160     0.5550 ca         1 MT3       0.153100
     13 C21         11.7830    -1.4810    -0.5230 ca         1 MT3      -0.263300
     14 C22         10.3850    -1.3450    -0.5650 ca         1 MT3       0.456600
     15 C24          7.6520    -1.0750    -0.6410 ca         1 MT3      -0.350300
     16 C26         11.8000     0.6730     3.7500 c3         1 MT3       0.125700
     17 C27         14.4480    -1.7860    -0.5300 c3         1 MT3       0.124700
     18 O2          13.8300    -1.1500     0.5910 os         1 MT3      -0.311900
     19 C19         11.8160    -0.4000     1.6270 ca         1 MT3       0.120100
     20 O1          12.5330     0.0550     2.6900 os         1 MT3      -0.314900
     21 C18         10.4600    -0.2530     1.6160 ca         1 MT3      -0.175000
     22 C23          8.3760    -1.6730    -1.6650 ca         1 MT3       0.463200
     23 C25          8.3140    -0.5880     0.4730 ca         1 MT3       0.180100
     24 C11          6.2760    -0.0010     1.4310 ca         1 MT3       0.055100
     25 C12          5.5610    -1.0930     1.9110 ca         1 MT3       0.126900
     26 F1           6.2180    -2.1520     2.4340 f          1 MT3      -0.125900
     27 C16          5.6050     1.0890     0.8940 ca         1 MT3      -0.110000
     28 C14          3.5070    -0.0010     1.3140 ca         1 MT3       0.010200
     29 O4           1.9740    -0.0010    -1.0470 o          1 MT3      -0.637500
     30 C29         -0.7310    -0.0000    -1.2700 c3         1 MT3       0.065300
     31 N2          -0.0650    -0.0100     2.3190 nd         1 MT3      -0.653300
     32 C9          -0.6770    -0.0050     1.1650 cc         1 MT3       0.505900
     33 C1          -2.7140    -0.0100     2.5480 ca         1 MT3      -0.071300
     34 C2          -2.9570    -1.2100     3.1890 ca         1 MT3      -0.108500
     35 C3          -3.4420    -1.2150     4.4830 ca         1 MT3      -0.124500
     36 H4          -4.0660    -0.0240     6.1500 ha         1 MT3       0.131000
     37 H5          -3.6310     2.1150     5.0040 ha         1 MT3       0.131000
     38 H6          -2.7650     2.1240     2.6960 ha         1 MT3       0.127500
     39 H10          1.7450     0.1290     3.3690 h4         1 MT3       0.176000
     40 H13          3.6240    -1.9460     2.2270 ha         1 MT3       0.154000
     41 H15          3.7040     1.9430     0.4130 ha         1 MT3       0.149000
     42 H21         12.3140    -1.8810    -1.3780 ha         1 MT3       0.161000
     43 H24          6.5750    -0.9910    -0.7140 ha         1 MT3       0.151000
     44 H26         12.4870     0.9870     4.5270 h1         1 MT3       0.042700
     45 H26A        11.0910    -0.0360     4.1600 h1         1 MT3       0.042700
     46 H26B        11.2690     1.5350     3.3670 h1         1 MT3       0.042700
     47 H28         -2.5350     0.8840     0.6230 hc         1 MT3       0.072200
     48 H28A        -2.5360    -0.8850     0.6140 hc         1 MT3       0.072200
     49 H27         15.5170    -1.8470    -0.3660 h1         1 MT3       0.044367
     50 H27A        14.2530    -1.2080    -1.4260 h1         1 MT3       0.044367
     51 H27B        14.0430    -2.7830    -0.6490 h1         1 MT3       0.044367
     52 H18          9.9570     0.2240     2.4490 ha         1 MT3       0.157000
     53 H23          7.8490    -2.0510    -2.5320 h4         1 MT3       0.023100
     54 H16          6.1640     1.9380     0.5200 ha         1 MT3       0.153000
     55 H29         -1.3740    -0.8710    -1.3170 h1         1 MT3       0.064033
     56 H29A        -1.3330     0.8970    -1.3410 h1         1 MT3       0.064033
     57 H29B        -0.0260    -0.0280    -2.0920 h1         1 MT3       0.064033
     58 H2          -2.7670    -2.1460     2.6770 ha         1 MT3       0.127500
     59 H3          -3.6330    -2.1550     4.9860 ha         1 MT3       0.131000
     60 C28         -2.1840    -0.0040     1.1360 c3         1 MT3      -0.067400
     61 O3           7.6340    -0.0010     1.4880 os         1 MT3      -0.234200
@<TRIPOS>BOND
     1     1     7 1
     2     1    30 1
     3     1    32 1
     4     2    14 ar
     5     2    22 ar
     6     3     4 ar
     7     3    35 ar
     8     4     5 ar
     9     5    33 ar
    10     6     7 1
    11     6     8 2
    12     6    28 1
    13     7    29 2
    14     8    31 1
    15     9    25 ar
    16     9    28 ar
    17    10    27 ar
    18    10    28 ar
    19    11    14 ar
    20    11    21 ar
    21    11    23 ar
    22    12    13 ar
    23    12    18 1
    24    12    19 ar
    25    13    14 ar
    26    15    22 ar
    27    15    23 ar
    28    16    20 1
    29    60    32 1
    30    60    33 1
    31    17    18 1
    32    19    20 1
    33    19    21 ar
    34    23    61 1
    35    61    24 1
    36    24    25 ar
    37    24    27 ar
    38    25    26 1
    39    31    32 2
    40    33    34 ar
    41    34    35 ar
    42     3    36 1
    43     4    37 1
    44     5    38 1
    45     8    39 1
    46     9    40 1
    47    10    41 1
    48    13    42 1
    49    15    43 1
    50    16    44 1
    51    16    45 1
    52    16    46 1
    53    60    47 1
    54    60    48 1
    55    17    49 1
    56    17    50 1
    57    17    51 1
    58    21    52 1
    59    22    53 1
    60    27    54 1
    61    30    55 1
    62    30    56 1
    63    30    57 1
    64    34    58 1
    65    35    59 1
@<TRIPOS>SUBSTRUCTURE
     1 MT3         1 TEMP              0 ****  ****    0 ROOT
