@<TRIPOS>MOLECULE
molecule
   60    64     1     0     0
SMALL
bcc


@<TRIPOS>ATOM
      1 N1           0.0000     0.0000     0.0000 nb         1 MT4      -0.713000
      2 N3          -1.5270     0.0340   -10.5530 nc         1 MT4      -0.729300
      3 C4          -0.0680     0.0000    -2.3600 ca         1 MT4      -0.349300
      4 C5           1.3140    -0.0000    -2.4370 ca         1 MT4       0.180100
      5 C6           4.1200    -0.0000    -0.0380 ca         1 MT4       0.119100
      6 C7           3.4240    -0.0010     1.1800 ca         1 MT4       0.153100
      7 C8           2.0590     0.0000     1.2060 ca         1 MT4      -0.264300
      8 C13          0.6340     1.0410    -5.3290 ca         1 MT4       0.124900
      9 C15         -0.3610    -0.3090    -7.0490 ca         1 MT4       0.021200
     10 C17          0.9640    -1.3440    -5.3340 ca         1 MT4      -0.109000
     11 C20         -2.6770    -0.6100   -10.5280 cd         1 MT4       0.732800
     12 C21         -0.7700     0.1470    -9.4660 cc         1 MT4       0.208600
     13 C24         -3.7590     0.3650   -13.8190 ca         1 MT4      -0.110000
     14 C26         -1.8910     0.7760   -15.2630 ca         1 MT4       0.125900
     15 C28         -1.5440    -0.2780   -13.1400 ca         1 MT4      -0.110000
     16 O2           4.1170    -0.0010     2.3480 os         1 MT4      -0.311900
     17 O1           5.4810    -0.0000    -0.0350 os         1 MT4      -0.313900
     18 C11          6.1310    -0.0010    -1.3070 c3         1 MT4       0.125700
     19 C9           3.4470     0.0010    -1.2250 ca         1 MT4      -0.175000
     20 C1           2.0440     0.0000    -1.2280 ca         1 MT4      -0.162300
     21 C2           1.3380     0.0000     0.0000 ca         1 MT4       0.456600
     22 C3          -0.6890    -0.0000    -1.1180 ca         1 MT4       0.464200
     23 O3           1.9460     0.0010    -3.6360 os         1 MT4      -0.234200
     24 C12          1.1870    -0.1010    -4.7580 ca         1 MT4       0.052100
     25 C14         -0.1370     0.9390    -6.4690 ca         1 MT4      -0.156000
     26 C16          0.1940    -1.4520    -6.4730 ca         1 MT4      -0.108000
     27 C18         -1.1890    -0.4220    -8.2730 cd         1 MT4      -0.290400
     28 C19         -2.4260    -1.1140    -8.2490 c          1 MT4       0.714700
     29 O4          -2.8330    -1.6280    -7.2220 o          1 MT4      -0.633500
     30 N2          -3.1440    -1.1900    -9.3900 n          1 MT4      -0.377300
     31 C23         -2.9070    -0.2020   -12.8810 ca         1 MT4       0.130600
     32 C25         -3.2490     0.8530   -15.0070 ca         1 MT4      -0.151500
     33 C27         -1.0400     0.2110   -14.3290 ca         1 MT4      -0.151500
     34 H4          -0.6630     0.0000    -3.2650 ha         1 MT4       0.151000
     35 H8           1.5340    -0.0000     2.1530 ha         1 MT4       0.161000
     36 H10          4.0220    -0.0010     4.4070 h1         1 MT4       0.044367
     37 H10A         2.7270    -0.8850     3.5870 h1         1 MT4       0.044367
     38 H10B         2.7280     0.8840     3.5870 h1         1 MT4       0.044367
     39 H17          1.3960    -2.2310    -4.8870 ha         1 MT4       0.152000
     40 H21          0.1710     0.6810    -9.5120 h4         1 MT4       0.176000
     41 H22         -4.3620    -2.7530   -10.0640 h1         1 MT4       0.063367
     42 H22A        -5.2050    -1.2290    -9.7510 h1         1 MT4       0.063367
     43 H22B        -4.6630    -2.2340    -8.3990 h1         1 MT4       0.063367
     44 H24         -4.8220     0.4260   -13.6190 ha         1 MT4       0.152500
     45 H28         -0.8770    -0.7210   -12.4100 ha         1 MT4       0.152500
     46 H11          5.8420     0.8840    -1.8610 h1         1 MT4       0.042700
     47 H11A         5.8410    -0.8850    -1.8610 h1         1 MT4       0.042700
     48 H11B         7.2050    -0.0010    -1.1630 h1         1 MT4       0.042700
     49 H9           3.9940     0.0010    -2.1600 ha         1 MT4       0.157000
     50 H3          -1.7710    -0.0000    -1.0690 h4         1 MT4       0.023100
     51 H14         -0.5670     1.8280    -6.9140 ha         1 MT4       0.153000
     52 H16          0.0220    -2.4230    -6.9210 ha         1 MT4       0.148000
     53 HN4         -4.3240    -1.1260   -11.6560 hn         1 MT4       0.461800
     54 H25         -3.9140     1.2960   -15.7390 ha         1 MT4       0.151000
     55 H27          0.0230     0.1510   -14.5310 ha         1 MT4       0.151000
     56 F2           0.8490     2.2490    -4.7630 f          1 MT4      -0.126900
     57 C10          3.3520    -0.0010     3.5550 c3         1 MT4       0.124700
     58 N4          -3.4200    -0.6970   -11.6760 nu         1 MT4      -0.720600
     59 C22         -4.4270    -1.8980    -9.4020 c3         1 MT4       0.059300
     60 F1          -1.3960     1.2540   -16.4250 f          1 MT4      -0.137900
@<TRIPOS>BOND
     1     1    21 ar
     2     1    22 ar
     3     2    11 2
     4     2    12 1
     5     3     4 ar
     6     3    22 ar
     7     4    20 ar
     8     4    23 1
     9     5     6 ar
    10     5    17 1
    11     5    19 ar
    12     6     7 ar
    13     6    16 1
    14     7    21 ar
    15    57    16 1
    16     8    24 ar
    17     8    25 ar
    18     8    56 1
    19     9    25 ar
    20     9    26 ar
    21     9    27 1
    22    10    24 ar
    23    10    26 ar
    24    11    30 1
    25    11    58 1
    26    12    27 2
    27    59    30 1
    28    13    31 ar
    29    13    32 ar
    30    14    32 ar
    31    14    60 1
    32    14    33 ar
    33    15    31 ar
    34    15    33 ar
    35    17    18 1
    36    19    20 ar
    37    20    21 ar
    38    23    24 1
    39    27    28 1
    40    28    29 2
    41    28    30 1
    42    58    31 1
    43     3    34 1
    44     7    35 1
    45    57    36 1
    46    57    37 1
    47    57    38 1
    48    10    39 1
    49    12    40 1
    50    59    41 1
    51    59    42 1
    52    59    43 1
    53    13    44 1
    54    15    45 1
    55    18    46 1
    56    18    47 1
    57    18    48 1
    58    19    49 1
    59    22    50 1
    60    25    51 1
    61    26    52 1
    62    58    53 1
    63    32    54 1
    64    33    55 1
@<TRIPOS>SUBSTRUCTURE
     1 MT4         1 TEMP              0 ****  ****    0 ROOT
