@<TRIPOS>MOLECULE
molecule
   52    53     1     0     0
SMALL
bcc


@<TRIPOS>ATOM
      1 C1           0.0000     0.0000     0.0000 c3         1 MT5      -0.092100
      2 C2           1.5300     0.0000     0.0000 c3         1 MT5      -0.083400
      3 C3           2.0410     0.0000     1.4430 c3         1 MT5      -0.081400
      4 C4           3.5710     0.0000     1.4410 c3         1 MT5      -0.081400
      5 C5           4.0810     0.0000     2.8840 c3         1 MT5      -0.078400
      6 C6           5.6110     0.0010     2.8840 c3         1 MT5      -0.084400
      7 C7           6.1210     0.0010     4.3260 c3         1 MT5      -0.074400
      8 C8           7.6520     0.0010     4.3260 c3         1 MT5      -0.047700
      9 N9           8.1400     0.0010     5.7070 nu         1 MT5      -0.346100
     10 C10          9.4220     0.0020     5.9440 cz         1 MT5       0.439300
     11 N11         10.3780     0.0020     4.9630 nu         1 MT5      -0.433200
     12 C12         11.7070     0.0740     5.5880 c3         1 MT5       0.025300
     13 C13         11.4200     0.1840     7.0920 c3         1 MT5       0.009000
     14 N14          9.9590     0.0070     7.1960 nh         1 MT5      -0.249200
     15 C15          9.2710    -0.1850     8.4810 c3         1 MT5       0.255800
     16 O16          9.3190     1.0230     9.2430 oh         1 MT5      -0.557800
     17 C17         10.0040    -1.3070     9.2310 c3         1 MT5       0.107100
     18 O18          9.4970    -1.3990    10.5630 oh         1 MT5      -0.546800
     19 C19         11.5030    -1.0030     9.2760 c3         1 MT5       0.129100
     20 O20         12.1680    -2.0200    10.0280 oh         1 MT5      -0.548800
     21 C21         12.0820    -0.9670     7.8550 c3         1 MT5       0.106100
     22 O22         13.4930    -0.7480     7.9210 oh         1 MT5      -0.564800
     23 H11         10.2000    -0.0390     3.9790 hn         1 MT5       0.344700
     24 H121        12.2140    -0.8670     5.4100 h1         1 MT5       0.098700
     25 H122        12.1820     0.9930     5.2670 h1         1 MT5       0.098700
     26 H13         11.7280     1.1470     7.4820 h1         1 MT5       0.134700
     27 H21         11.8750    -1.9040     7.3520 h1         1 MT5       0.035700
     28 H17          9.8450    -2.2460     8.7140 h1         1 MT5       0.039700
     29 H18          8.9500    -2.1630    10.6400 ho         1 MT5       0.418000
     30 H19         11.6580    -0.0410     9.7490 h1         1 MT5       0.135700
     31 H20         11.9790    -2.8640     9.6520 ho         1 MT5       0.395000
     32 H22         13.9460    -1.5410     7.6830 ho         1 MT5       0.427000
     33 H1          -0.3610    -0.0000    -1.0210 hc         1 MT5       0.037033
     34 H2          -0.3610    -0.8840     0.5110 hc         1 MT5       0.037033
     35 H3          -0.3610     0.8850     0.5110 hc         1 MT5       0.037033
     36 H9           8.1120    -0.8070     5.1170 hn         1 MT5       0.310700
     37 H23          1.8910    -0.8840    -0.5110 hc         1 MT5       0.042200
     38 H24          1.8910     0.8840    -0.5110 hc         1 MT5       0.042200
     39 H31          1.6800    -0.8850     1.9540 hc         1 MT5       0.044700
     40 H32          1.6800     0.8840     1.9540 hc         1 MT5       0.044700
     41 H41          3.9310     0.8850     0.9310 hc         1 MT5       0.044700
     42 H42          3.9310    -0.8840     0.9300 hc         1 MT5       0.044700
     43 H51          3.7200     0.8840     3.3950 hc         1 MT5       0.049700
     44 H52          3.7210    -0.8850     3.3950 hc         1 MT5       0.049700
     45 H61          5.9730    -0.8830     2.3730 hc         1 MT5       0.048700
     46 H62          5.9720     0.8860     2.3740 hc         1 MT5       0.048700
     47 H71          5.7600     0.8860     4.8370 hc         1 MT5       0.073200
     48 H72          5.7600    -0.8830     4.8370 hc         1 MT5       0.073200
     49 H81          8.0120     0.8860     3.8150 h1         1 MT5       0.060700
     50 H82          8.0130    -0.8830     3.8140 h1         1 MT5       0.060700
     51 H15          8.2420    -0.4740     8.3060 h2         1 MT5       0.083700
     52 H16          8.4480     1.3700     9.3370 ho         1 MT5       0.437000
@<TRIPOS>BOND
     1     3    40 1
     2     4    41 1
     3     4    42 1
     4     5    43 1
     5     5    44 1
     6     6    45 1
     7     6    46 1
     8     7    47 1
     9     7    48 1
    10     8    49 1
    11     8    50 1
    12    15    51 1
    13    16    52 1
    14     1     2 1
    15     2     3 1
    16     3     4 1
    17     4     5 1
    18     5     6 1
    19     6     7 1
    20     7     8 1
    21     8     9 1
    22     9    10 2
    23    10    11 1
    24    11    12 1
    25    12    13 1
    26    10    14 1
    27    13    14 1
    28    14    15 1
    29    15    16 1
    30    15    17 1
    31    17    18 1
    32    17    19 1
    33    19    20 1
    34    13    21 1
    35    19    21 1
    36    21    22 1
    37    11    23 1
    38    12    24 1
    39    12    25 1
    40    13    26 1
    41    21    27 1
    42    17    28 1
    43    18    29 1
    44    19    30 1
    45    20    31 1
    46    22    32 1
    47     1    33 1
    48     1    34 1
    49     1    35 1
    50     9    36 1
    51     2    37 1
    52     2    38 1
    53     3    39 1
@<TRIPOS>SUBSTRUCTURE
     1 MT5         1 TEMP              0 ****  ****    0 ROOT
