@<TRIPOS>MOLECULE
MT5
   52    53     1     0     0
SMALL
bcc


@<TRIPOS>ATOM
      1 C1           0.0000     0.0000     0.0000 c3         1 MT5       0.006900
      2 C2           1.5300     0.0000     0.0000 c3         1 MT5      -0.027400
      3 C3           2.0410     0.0000     1.4430 c3         1 MT5      -0.028400
      4 C4           3.5710     0.0000     1.4410 c3         1 MT5      -0.027400
      5 C5           4.0810     0.0000     2.8840 c3         1 MT5      -0.026400
      6 C6           5.6110     0.0010     2.8840 c3         1 MT5      -0.021400
      7 C7           6.1210     0.0010     4.3260 c3         1 MT5      -0.034400
      8 C8           7.6520     0.0010     4.3260 c3         1 MT5      -0.055700
      9 N9           8.1400     0.0010     5.7070 nu         1 MT5       0.090900
     10 C10          9.4220     0.0020     5.9440 cz         1 MT5       0.062300
     11 N11         10.3780     0.0020     4.9630 nu         1 MT5       0.010800
     12 C12         11.7070     0.0740     5.5880 c3         1 MT5      -0.019700
     13 C13         11.4200     0.1840     7.0920 c3         1 MT5      -0.064000
     14 N14          9.9590     0.0070     7.1960 nh         1 MT5       0.042800
     15 C15          9.2710    -0.1850     8.4810 c3         1 MT5       0.199800
     16 O16          9.3190     1.0230     9.2430 oh         1 MT5      -0.548800
     17 C17         10.0040    -1.3070     9.2310 c3         1 MT5       0.158100
     18 O18          9.4970    -1.3990    10.5630 oh         1 MT5      -0.547800
     19 C19         11.5030    -1.0030     9.2760 c3         1 MT5       0.153100
     20 O20         12.1680    -2.0200    10.0280 oh         1 MT5      -0.570800
     21 C21         12.0820    -0.9670     7.8550 c3         1 MT5       0.168100
     22 O22         13.4930    -0.7480     7.9210 oh         1 MT5      -0.560800
     23 H11         10.2000    -0.0390     3.9790 hn         1 MT5       0.191700
     24 H121        12.2140    -0.8670     5.4100 h1         1 MT5       0.059200
     25 H122        12.1820     0.9930     5.2670 h1         1 MT5       0.059200
     26 H13         11.7280     1.1470     7.4820 h1         1 MT5       0.088700
     27 H21         11.8750    -1.9040     7.3520 h1         1 MT5       0.017700
     28 H17          9.8450    -2.2460     8.7140 h1         1 MT5       0.018700
     29 H18          9.0700    -2.2310    10.6800 ho         1 MT5       0.407000
     30 H19         11.6570    -0.0410     9.7490 h1         1 MT5       0.047700
     31 H20         12.5890    -1.6320    10.7770 ho         1 MT5       0.419000
     32 H22         13.9460    -1.5400     7.6800 ho         1 MT5       0.414000
     33 H1          -0.3610     0.8840     0.5110 hc         1 MT5       0.003700
     34 H2          -0.3610    -0.8850     0.5110 hc         1 MT5       0.003700
     35 H3          -0.3610     0.0000    -1.0210 hc         1 MT5       0.003700
     36 H9           7.4910     0.0000     6.4680 hn         1 MT5       0.163700
     37 H23          1.8910     0.8840    -0.5110 hc         1 MT5       0.013700
     38 H24          1.8910    -0.8840    -0.5110 hc         1 MT5       0.013700
     39 H31          1.6800     0.8840     1.9540 hc         1 MT5       0.016700
     40 H32          1.6800    -0.8850     1.9540 hc         1 MT5       0.016700
     41 H41          3.9310    -0.8840     0.9300 hc         1 MT5       0.017700
     42 H42          3.9310     0.8850     0.9310 hc         1 MT5       0.017700
     43 H51          3.7210    -0.8850     3.3950 hc         1 MT5       0.019200
     44 H52          3.7200     0.8840     3.3950 hc         1 MT5       0.019200
     45 H61          5.9720     0.8860     2.3740 hc         1 MT5       0.022200
     46 H62          5.9730    -0.8830     2.3730 hc         1 MT5       0.022200
     47 H71          5.7600     0.8860     4.8370 hc         1 MT5       0.028700
     48 H72          5.7600    -0.8830     4.8370 hc         1 MT5       0.028700
     49 H81          8.0130    -0.8830     3.8140 h1         1 MT5       0.040200
     50 H82          8.0130     0.8860     3.8150 h1         1 MT5       0.040200
     51 H15          8.2420    -0.4740     8.3060 h2         1 MT5       0.011700
     52 H16          8.4420     1.3010     9.4460 ho         1 MT5       0.416000
@<TRIPOS>BOND
     1     1     2 1   
     2     1    33 1   
     3     1    34 1   
     4     1    35 1   
     5     2     3 1   
     6     2    37 1   
     7     2    38 1   
     8     3     4 1   
     9     3    39 1   
    10     3    40 1   
    11     4     5 1   
    12     4    41 1   
    13     4    42 1   
    14     5     6 1   
    15     5    43 1   
    16     5    44 1   
    17     6     7 1   
    18     6    45 1   
    19     6    46 1   
    20     7     8 1   
    21     7    47 1   
    22     7    48 1   
    23     8     9 1   
    24     8    49 1   
    25     8    50 1   
    26     9    10 2   
    27     9    36 1   
    28    10    11 1   
    29    10    14 1   
    30    11    12 1   
    31    11    23 1   
    32    12    13 1   
    33    12    24 1   
    34    12    25 1   
    35    13    14 1   
    36    13    21 1   
    37    13    26 1   
    38    14    15 1   
    39    15    16 1   
    40    15    17 1   
    41    15    51 1   
    42    16    52 1   
    43    17    18 1   
    44    17    19 1   
    45    17    28 1   
    46    18    29 1   
    47    19    20 1   
    48    19    21 1   
    49    19    30 1   
    50    20    31 1   
    51    21    22 1   
    52    21    27 1   
    53    22    32 1   
@<TRIPOS>SUBSTRUCTURE
     1 MT5         1 TEMP              0 ****  ****    0 ROOT
