@<TRIPOS>MOLECULE
MT6
   31    33     1     0     0
SMALL
bcc


@<TRIPOS>ATOM
      1 C8          0.0730    0.0080   -0.0100 ca        1 MT6     -0.052000
      2 C7          1.4730    0.0120    0.0640 ca        1 MT6     -0.136500
      3 C5          3.6450    0.0180   -1.3540 cc        1 MT6     -0.166300
      4 C6          2.2770    0.0130   -1.1310 cd        1 MT6      0.285200
      5 N1          4.7260    0.0150   -5.0180 n         1 MT6     -0.450100
      6 C2          3.4500    0.0080   -5.5320 cc        1 MT6      0.028600
      7 C4          3.8270    0.0160   -2.7810 cc        1 MT6     -0.313900
      8 O3         -2.8340    0.0010    0.0180 o         1 MT6     -0.540000
      9 O4         -2.8150    0.0030    2.2480 os        1 MT6     -0.439900
     10 C15        -4.2420   -0.0010    2.1870 c3        1 MT6      0.127700
     11 C9         -0.6880    0.0080    1.1650 ca        1 MT6     -0.133600
     12 C10        -0.0580    0.0110    2.4160 ca        1 MT6     -0.065000
     13 C13         1.3340    0.0150    2.4860 ca        1 MT6     -0.146000
     14 C11         2.0990    0.0150    1.3220 ca        1 MT6     -0.083000
     15 O2          1.5700    0.0070   -2.3650 os        1 MT6     -0.340800
     16 C12         2.5390    0.0090   -3.3500 cd        1 MT6      0.399500
     17 C1          2.3170    0.0050   -4.7500 cd        1 MT6     -0.333800
     18 C3          5.0010    0.0190   -3.6270 c         1 MT6      0.731100
     19 O1          6.1910    0.0250   -3.2630 o         1 MT6     -0.628500
     20 H1         -0.4340    0.0060   -0.9900 ha        1 MT6      0.172000
     21 H2          4.4430    0.0230   -0.6140 ha        1 MT6      0.177000
     22 H3          5.5040    0.0170   -5.6410 hn        1 MT6      0.335500
     23 H4          3.3780    0.0060   -6.6360 h4        1 MT6      0.157000
     24 H5         -4.6030    0.9120    1.6550 h1        1 MT6      0.051700
     25 H6         -4.5510   -0.0010    3.2610 h1        1 MT6      0.051700
     26 H7         -4.5980   -0.9170    1.6570 h1        1 MT6      0.051700
     27 H8         -0.6660    0.0100    3.3340 ha        1 MT6      0.158000
     28 H9          1.8320    0.0180    3.4670 ha        1 MT6      0.143000
     29 H10         3.1980    0.0190    1.3850 ha        1 MT6      0.142000
     30 H11         1.3080   -0.0000   -5.1740 ha        1 MT6      0.171000
     31 C14        -2.1530    0.0040    1.0470 c         1 MT6      0.644700
@<TRIPOS>BOND
     1    1    2 ar  
     2    1   11 ar  
     3    1   20 1   
     4    2    4 1   
     5    2   14 ar  
     6    3    4 2   
     7    3    7 1   
     8    3   21 1   
     9    4   15 1   
    10    5    6 1   
    11    5   18 1   
    12    5   22 1   
    13    6   17 2   
    14    6   23 1   
    15    7   16 2   
    16    7   18 1   
    17    8   31 2   
    18    9   10 1   
    19    9   31 1   
    20   10   24 1   
    21   10   25 1   
    22   10   26 1   
    23   11   12 ar  
    24   11   31 1   
    25   12   13 ar  
    26   12   27 1   
    27   13   14 ar  
    28   13   28 1   
    29   14   29 1   
    30   15   16 1   
    31   16   17 1   
    32   17   30 1   
    33   18   19 2   
@<TRIPOS>SUBSTRUCTURE
     1 MT6         1 TEMP              0 ****  ****    0 ROOT
