@<TRIPOS>MOLECULE
molecule
   31    33     1     0     0
SMALL
bcc


@<TRIPOS>ATOM
      1 C1           0.0000     0.0000     0.0000 c3         1 MT8       0.195100
      2 O1          -0.4700    -1.2580     0.4910 oh         1 MT8      -0.597800
      3 C2           1.5280     0.0000     0.0000 c3         1 MT8      -0.118400
      4 C3           2.0210     0.0000     1.4530 c3         1 MT8       0.098000
      5 C6          -0.5050     0.2040    -1.4300 c3         1 MT8      -0.124100
      6 N7           1.5620     1.2440     2.0840 n          1 MT8      -0.372000
      7 C8           2.4120     1.9620     2.8380 c          1 MT8       0.703500
      8 O8           3.5140     1.5200     3.0830 o          1 MT8      -0.632500
      9 C9           2.0140     3.3070     3.3820 c3         1 MT8      -0.152400
     10 C10          0.5390     3.2930     3.7750 c3         1 MT8      -0.030100
     11 C11         -0.2830     2.6830     2.6700 ca         1 MT8      -0.132300
     12 C12         -1.5710     3.1320     2.4530 ca         1 MT8      -0.090000
     13 C13         -2.3400     2.5700     1.4510 ca         1 MT8      -0.158000
     14 C14         -1.8210     1.5570     0.6680 ca         1 MT8      -0.084000
     15 C15          0.2470     1.6740     1.8740 ca         1 MT8       0.101600
     16 C20         -0.5300     1.1040     0.8760 ca         1 MT8      -0.113300
     17 HO1         -0.5460    -1.8660    -0.2260 ho         1 MT8       0.402000
     18 H2           1.8300    -0.9510    -0.4210 hc         1 MT8       0.069200
     19 H2A          1.8300     0.9510    -0.4210 hc         1 MT8       0.069200
     20 H3           3.1030    -0.0410     1.4720 h1         1 MT8       0.075200
     21 H3A          1.6070    -0.8510     1.9790 h1         1 MT8       0.075200
     22 H6          -0.3790     1.2420    -1.7130 hc         1 MT8       0.046700
     23 H6A          0.0610    -0.4250    -2.1060 hc         1 MT8       0.046700
     24 H6B         -1.5540    -0.0600    -1.4840 hc         1 MT8       0.046700
     25 H9           2.1760     4.0620     2.6220 hc         1 MT8       0.076700
     26 H9A          2.6150     3.5330     4.2540 hc         1 MT8       0.076700
     27 H10          0.2060     4.3090     3.9500 hc         1 MT8       0.058700
     28 H10A         0.4150     2.7070     4.6780 hc         1 MT8       0.058700
     29 H12         -1.9790     3.9260     3.0670 ha         1 MT8       0.133000
     30 H13         -3.3590     2.9060     1.2960 ha         1 MT8       0.133000
     31 H14         -2.4260     1.1180    -0.1160 ha         1 MT8       0.135000
@<TRIPOS>BOND
     1     1     2 1
     2     1     3 1
     3     1     5 1
     4     1    16 1
     5     3     4 1
     6     4     6 1
     7     6     7 1
     8     6    15 1
     9     7     8 2
    10     7     9 1
    11     9    10 1
    12    10    11 1
    13    11    12 ar
    14    11    15 ar
    15    12    13 ar
    16    13    14 ar
    17    14    16 ar
    18    15    16 ar
    19     2    17 1
    20     3    18 1
    21     3    19 1
    22     4    20 1
    23     4    21 1
    24     5    22 1
    25     5    23 1
    26     5    24 1
    27     9    25 1
    28     9    26 1
    29    10    27 1
    30    10    28 1
    31    12    29 1
    32    13    30 1
    33    14    31 1
@<TRIPOS>SUBSTRUCTURE
     1 MT8         1 TEMP              0 ****  ****    0 ROOT
