@<TRIPOS>MOLECULE
MTA
   35    37     1     0     0
SMALL
bcc


@<TRIPOS>ATOM
      1 CS           0.0000     0.0000     0.0000 c3         1 MTA       0.110000
      2 S5'          1.8140     0.0000     0.0000 ss         1 MTA      -0.372200
      3 C5'          2.1300     0.0000     1.7860 c3         1 MTA       0.062700
      4 C4'          3.6380     0.0010     2.0370 c3         1 MTA       0.180100
      5 O4'          4.2270     1.1900     1.4850 os         1 MTA      -0.383600
      6 C2'          4.7600     1.2940     3.7720 c3         1 MTA       0.130100
      7 O2'          5.8180     1.0550     4.7000 oh         1 MTA      -0.535800
      8 C3'          3.9180     0.0090     3.5510 c3         1 MTA       0.125100
      9 O3'          4.6620    -1.1490     3.9370 oh         1 MTA      -0.545800
     10 C1'          5.3180     1.5640     2.3530 c3         1 MTA       0.149800
     11 N9           5.6490     2.9790     2.1850 na         1 MTA       0.210000
     12 C8           4.7900     3.9700     1.8090 cc         1 MTA       0.246700
     13 N7           5.4180     5.1080     1.7620 nd         1 MTA      -0.496100
     14 C5           6.7160     4.9220     2.1030 ca         1 MTA      -0.246200
     15 C6           7.8360     5.7620     2.2230 ca         1 MTA       0.592200
     16 N6           7.7350     7.1180     1.9650 nv         1 MTA      -0.483500
     17 N1           8.9930     5.2250     2.5920 nb         1 MTA      -0.746000
     18 C2           9.0990     3.9320     2.8410 ca         1 MTA       0.690900
     19 N3           8.0770     3.1090     2.7410 nb         1 MTA      -0.673000
     20 C4           6.8770     3.5560     2.3830 ca         1 MTA       0.277800
     21 HCS1        -0.3610    -0.8840     0.5120 h1         1 MTA       0.031700
     22 HCS2        -0.3610    -0.0020    -1.0210 h1         1 MTA       0.031700
     23 HCS3        -0.3610     0.8850     0.5090 h1         1 MTA       0.031700
     24 H5'1         1.6890     0.8840     2.2300 h1         1 MTA       0.039700
     25 H5'2         1.6910    -0.8850     2.2300 h1         1 MTA       0.039700
     26 H4'          4.0910    -0.8740     1.5860 h1         1 MTA       0.056700
     27 H2'          4.1300     2.1120     4.0980 h1         1 MTA       0.020700
     28 HO2'         5.5740     1.3860     5.5480 ho         1 MTA       0.389000
     29 H3'          2.9890     0.0690     4.1050 h1         1 MTA       0.012700
     30 H3T          4.1320    -1.6920     4.4960 ho         1 MTA       0.389000
     31 H1'          6.1830     0.9400     2.1620 h2         1 MTA       0.076700
     32 H8           3.7400     3.8290     1.5830 h5         1 MTA       0.039800
     33 H61          8.5400     7.7060     2.0590 hn         1 MTA       0.275800
     34 H62          6.8580     7.5110     1.6860 hn         1 MTA       0.275800
     35 H2          10.0610     3.5350     3.1390 h5         1 MTA      -0.004900
@<TRIPOS>BOND
     1     1     2 1   
     2     1    21 1   
     3     1    22 1   
     4     1    23 1   
     5     2     3 1   
     6     3     4 1   
     7     3    24 1   
     8     3    25 1   
     9     4     5 1   
    10     4     8 1   
    11     4    26 1   
    12     5    10 1   
    13     6     7 1   
    14     6     8 1   
    15     6    10 1   
    16     6    27 1   
    17     7    28 1   
    18     8     9 1   
    19     8    29 1   
    20     9    30 1   
    21    10    11 1   
    22    10    31 1   
    23    11    12 1   
    24    11    20 1   
    25    12    13 2   
    26    12    32 1   
    27    13    14 1   
    28    14    15 ar  
    29    14    20 ar  
    30    15    16 1   
    31    15    17 ar  
    32    16    33 1   
    33    16    34 1   
    34    17    18 ar  
    35    18    19 ar  
    36    18    35 1   
    37    19    20 ar  
@<TRIPOS>SUBSTRUCTURE
     1 MTA         1 TEMP              0 ****  ****    0 ROOT
