@<TRIPOS>MOLECULE
molecule
   39    40     1     0     0
SMALL
bcc


@<TRIPOS>ATOM
      1 C1           0.0000     0.0000     0.0000 ca         1 MTB       0.089400
      2 C2           1.4100     0.0000     0.0000 ca         1 MTB      -0.031600
      3 C3           2.0970     0.0000     1.2130 ca         1 MTB      -0.115000
      4 C4           1.3980    -0.0140     2.4030 ca         1 MTB      -0.130000
      5 C5           0.0130    -0.0210     2.4030 ca         1 MTB      -0.173000
      6 C6          -0.6880    -0.0140     1.2140 ca         1 MTB      -0.130000
      7 C1'         -2.6630     0.0060    -2.3520 ca         1 MTB       0.103400
      8 C2'         -4.0620    -0.0010    -2.3490 ca         1 MTB      -0.073000
      9 C3'         -4.7510     0.0060    -3.5410 ca         1 MTB      -0.120300
     10 C4'         -4.0590     0.0140    -4.7450 ca         1 MTB       0.126100
     11 C5'         -2.6690     0.0270    -4.7540 ca         1 MTB      -0.228000
     12 C6'         -1.9710     0.0200    -3.5670 ca         1 MTB      -0.079000
     13 C            2.1530     0.0140    -1.2740 c          1 MTB       0.876200
     14 CT3         -6.2590    -0.0010    -3.5390 c3         1 MTB      -0.003700
     15 CHV         -6.7660    -0.0160    -2.0950 c3         1 MTB      -0.081100
     16 CHW         -6.7630    -1.2460    -4.2700 c3         1 MTB      -0.081100
     17 CHX         -6.7750     1.2520    -4.2480 c3         1 MTB      -0.081100
     18 N1          -0.6880     0.0050    -1.1790 ne         1 MTB      -0.117400
     19 N1'         -1.9770    -0.0010    -1.1740 nf         1 MTB      -0.300400
     20 O            1.5500     0.0150    -2.3290 o          1 MTB      -0.822300
     21 OXT          3.5000     0.0280    -1.2680 o          1 MTB      -0.822300
     22 O4'         -4.7430     0.0210    -5.9180 oh         1 MTB      -0.509100
     23 H3           3.1800     0.0030     1.2220 ha         1 MTB       0.161000
     24 H4           1.9360    -0.0170     3.3430 ha         1 MTB       0.108000
     25 H5          -0.5240    -0.0320     3.3440 ha         1 MTB       0.106000
     26 H6          -1.7710    -0.0170     1.2240 ha         1 MTB       0.136000
     27 H2'         -4.6020    -0.0090    -1.4100 ha         1 MTB       0.144000
     28 H5'         -2.1330     0.0350    -5.6960 ha         1 MTB       0.127000
     29 H6'         -0.8880     0.0280    -3.5750 ha         1 MTB       0.200000
     30 H11         -7.8500    -0.0200    -2.0940 hc         1 MTB       0.034367
     31 H12         -6.4080     0.8660    -1.5780 hc         1 MTB       0.034367
     32 H13         -6.4000    -0.9030    -1.5930 hc         1 MTB       0.034367
     33 H21         -6.1910    -2.1090    -3.9510 hc         1 MTB       0.034367
     34 H22         -6.6450    -1.1100    -5.3390 hc         1 MTB       0.034367
     35 H23         -7.8100    -1.4010    -4.0400 hc         1 MTB       0.034367
     36 H31         -7.8270     1.3840    -4.0280 hc         1 MTB       0.034367
     37 H32         -6.6410     1.1430    -5.3180 hc         1 MTB       0.034367
     38 H33         -6.2220     2.1170    -3.9010 hc         1 MTB       0.034367
     39 HO4'        -4.1340     0.0100    -6.6370 ho         1 MTB       0.413000
@<TRIPOS>BOND
     1     1     2 ar
     2     1     6 ar
     3     1    18 1
     4     2     3 ar
     5     2    13 1
     6     3     4 ar
     7     3    23 1
     8     4     5 ar
     9     4    24 1
    10     5     6 ar
    11     5    25 1
    12     6    26 1
    13     7     8 ar
    14     7    12 ar
    15     7    19 1
    16     8     9 ar
    17     8    27 1
    18     9    10 ar
    19     9    14 1
    20    10    11 ar
    21    10    22 1
    22    11    12 ar
    23    11    28 1
    24    12    29 1
    25    13    20 1
    26    13    21 1
    27    14    15 1
    28    14    16 1
    29    14    17 1
    30    15    30 1
    31    15    31 1
    32    15    32 1
    33    16    33 1
    34    16    34 1
    35    16    35 1
    36    17    36 1
    37    17    37 1
    38    17    38 1
    39    18    19 2
    40    22    39 1
@<TRIPOS>SUBSTRUCTURE
     1 MTB         1 TEMP              0 ****  ****    0 ROOT
