@<TRIPOS>MOLECULE
molecule
   43    44     1     0     0
SMALL
bcc


@<TRIPOS>ATOM
      1 C1           0.0000     0.0000     0.0000 c3         1 MTC       0.068900
      2 C2           1.4660     0.0000     0.0000 c1         1 MTC      -0.133100
      3 C3           2.5560     0.0000     0.4660 cg         1 MTC      -0.153300
      4 C4           3.6900    -0.0230     1.3340 ce         1 MTC       0.009300
      5 C5           3.6110    -0.4920     2.6060 cf         1 MTC      -0.006700
      6 C6           2.4230    -1.1270     3.1580 ch         1 MTC      -0.117300
      7 C7           1.3700    -1.6770     3.3210 c1         1 MTC      -0.198100
      8 C8          -0.0000    -2.2070     3.1450 c3         1 MTC       0.320100
      9 C9          -0.0240    -3.6400     2.6270 c3         1 MTC      -0.181400
     10 C10          0.2550    -3.7580     1.1500 c          1 MTC       0.572300
     11 C11          0.1180    -2.5460     0.2430 ce         1 MTC       0.027400
     12 C12         -0.1800    -1.3210     0.7720 cf         1 MTC      -0.108200
     13 C13         -0.6680    -1.2360     2.1840 cf         1 MTC      -0.088200
     14 C14         -1.7440    -0.3390     2.6840 c2         1 MTC      -0.122200
     15 C15         -2.6650     0.4120     1.7750 c3         1 MTC       0.013900
     16 C16         -6.2890    -2.5640    -1.5060 c3         1 MTC       0.029000
     17 C17          0.4100    -3.6880    -2.0650 c          1 MTC       0.762100
     18 C18          0.5900    -4.4630    -4.2750 c3         1 MTC       0.158700
     19 O8          -0.5750    -2.2300     4.4180 oh         1 MTC      -0.598800
     20 O10          0.5120    -4.8570     0.7380 o          1 MTC      -0.450100
     21 O71          0.4720    -4.8330    -1.7440 o          1 MTC      -0.549000
     22 O72          0.4610    -3.3610    -3.3460 os         1 MTC      -0.456900
     23 N11          0.2390    -2.6360    -1.2550 ns         1 MTC      -0.492100
     24 S1          -4.3210    -0.2410     2.0990 ss         1 MTC      -0.065100
     25 S2          -4.9980    -0.4620     0.2020 ss         1 MTC      -0.099000
     26 S3          -5.8030    -2.3140     0.2300 ss         1 MTC      -0.244100
     27 H11A        -0.4000     0.8430     0.5510 hc         1 MTC       0.076700
     28 H12         -0.4000    -0.0660    -1.0050 hc         1 MTC       0.076700
     29 H4           4.6400     0.3440     0.9660 ha         1 MTC       0.149000
     30 H5           4.4800    -0.3880     3.2450 ha         1 MTC       0.146000
     31 H91         -1.0020    -4.0610     2.8270 hc         1 MTC       0.096200
     32 H92          0.7210    -4.2130     3.1650 hc         1 MTC       0.096200
     33 H14         -2.0190    -0.4010     3.7300 ha         1 MTC       0.165000
     34 H151        -2.6310     1.4710     2.0000 h1         1 MTC       0.089700
     35 H152        -2.3920     0.2410     0.7410 h1         1 MTC       0.089700
     36 H161        -6.5640    -3.6010    -1.6580 h1         1 MTC       0.070033
     37 H162        -5.4580    -2.3130    -2.1540 h1         1 MTC       0.070033
     38 H163        -7.1340    -1.9290    -1.7400 h1         1 MTC       0.070033
     39 H181         1.5040    -5.0060    -4.0670 h1         1 MTC       0.050700
     40 H182         0.6210    -4.0800    -5.2880 h1         1 MTC       0.050700
     41 H183        -0.2580    -5.1280    -4.1670 h1         1 MTC       0.050700
     42 HO8          0.1040    -2.3030     5.0680 ho         1 MTC       0.429000
     43 H11          0.1800    -1.7560    -1.7290 hn         1 MTC       0.321500
@<TRIPOS>BOND
     1     1     2 1
     2     1    12 1
     3     1    27 1
     4     1    28 1
     5     2     3 3
     6     3     4 1
     7     4     5 2
     8     4    29 1
     9     5     6 1
    10     5    30 1
    11     6     7 3
    12     7     8 1
    13     8     9 1
    14     8    13 1
    15     8    19 1
    16     9    10 1
    17     9    31 1
    18     9    32 1
    19    10    11 1
    20    10    20 2
    21    11    12 2
    22    11    23 1
    23    12    13 1
    24    13    14 2
    25    14    15 1
    26    14    33 1
    27    15    24 1
    28    15    34 1
    29    15    35 1
    30    16    26 1
    31    16    36 1
    32    16    37 1
    33    16    38 1
    34    17    21 2
    35    17    22 1
    36    17    23 1
    37    18    22 1
    38    18    39 1
    39    18    40 1
    40    18    41 1
    41    19    42 1
    42    23    43 1
    43    24    25 1
    44    25    26 1
@<TRIPOS>SUBSTRUCTURE
     1 MTC         1 TEMP              0 ****  ****    0 ROOT
