@<TRIPOS>MOLECULE
MTC
   43    44     1     0     0
SMALL
bcc


@<TRIPOS>ATOM
      1 C1           0.0000     0.0000     0.0000 c3         1 MTC       0.173900
      2 C2           1.4660     0.0000     0.0000 c1         1 MTC      -0.160100
      3 C3           2.5560     0.0000     0.4660 cg         1 MTC      -0.147300
      4 C4           3.6900    -0.0230     1.3340 ce         1 MTC       0.049300
      5 C5           3.6110    -0.4920     2.6060 cf         1 MTC       0.044300
      6 C6           2.4230    -1.1270     3.1580 ch         1 MTC      -0.117300
      7 C7           1.3700    -1.6770     3.3210 c1         1 MTC      -0.207100
      8 C8          -0.0000    -2.2070     3.1450 c3         1 MTC       0.374100
      9 C9          -0.0240    -3.6400     2.6270 c3         1 MTC      -0.149400
     10 C10          0.2550    -3.7580     1.1500 c          1 MTC       0.619300
     11 C11          0.1180    -2.5460     0.2430 ce         1 MTC      -0.120600
     12 C12         -0.1800    -1.3210     0.7720 cf         1 MTC      -0.110200
     13 C13         -0.6680    -1.2360     2.1840 cf         1 MTC      -0.087200
     14 C14         -1.7440    -0.3390     2.6840 c2         1 MTC      -0.101200
     15 C15         -2.6650     0.4120     1.7750 c3         1 MTC       0.097900
     16 C16         -6.2890    -2.5640    -1.5060 c3         1 MTC       0.140000
     17 C17          0.4100    -3.6880    -2.0650 c          1 MTC       0.684100
     18 C18          0.5900    -4.4630    -4.2750 c3         1 MTC       0.284700
     19 O8          -0.5750    -2.2300     4.4180 oh         1 MTC      -0.589800
     20 O10          0.5120    -4.8570     0.7380 o          1 MTC      -0.487100
     21 O71          0.4720    -4.8330    -1.7440 o          1 MTC      -0.592000
     22 O72          0.4610    -3.3610    -3.3460 os         1 MTC      -0.443900
     23 N11          0.2390    -2.6360    -1.2550 ns         1 MTC      -0.061100
     24 S1          -4.3210    -0.2410     2.0990 ss         1 MTC      -0.126100
     25 S2          -4.9980    -0.4620     0.2020 ss         1 MTC      -0.096000
     26 S3          -5.8030    -2.3140     0.2300 ss         1 MTC      -0.258100
     27 H11A        -0.4000    -0.0660    -1.0050 hc         1 MTC       0.035700
     28 H12         -0.4000     0.8430     0.5510 hc         1 MTC       0.035700
     29 H4           4.6410     0.3440     0.9660 ha         1 MTC       0.111000
     30 H5           4.4800    -0.3870     3.2450 ha         1 MTC       0.107000
     31 H91          0.7220    -4.2120     3.1650 hc         1 MTC       0.058700
     32 H92         -1.0020    -4.0610     2.8270 hc         1 MTC       0.058700
     33 H14         -2.0190    -0.4010     3.7300 ha         1 MTC       0.138000
     34 H151        -2.6310     1.4710     2.0000 h1         1 MTC       0.065200
     35 H152        -2.3920     0.2410     0.7410 h1         1 MTC       0.065200
     36 H161        -5.9060    -3.5160    -1.8550 h1         1 MTC       0.041033
     37 H162        -5.8810    -1.7660    -2.1140 h1         1 MTC       0.041033
     38 H163        -7.3690    -2.5600    -1.5830 h1         1 MTC       0.041033
     39 H181         1.4790    -5.0350    -4.0360 h1         1 MTC       0.001033
     40 H182         0.6700    -4.0780    -5.2840 h1         1 MTC       0.001033
     41 H183        -0.2820    -5.1020    -4.2010 h1         1 MTC       0.001033
     42 HO8          0.0420    -2.5890     5.0350 ho         1 MTC       0.414000
     43 H11          0.1790    -1.7560    -1.7290 hn         1 MTC       0.168500
@<TRIPOS>BOND
     1     1     2 1   
     2     1    12 1   
     3     1    27 1   
     4     1    28 1   
     5     2     3 3   
     6     3     4 1   
     7     4     5 2   
     8     4    29 1   
     9     5     6 1   
    10     5    30 1   
    11     6     7 3   
    12     7     8 1   
    13     8     9 1   
    14     8    13 1   
    15     8    19 1   
    16     9    10 1   
    17     9    31 1   
    18     9    32 1   
    19    10    11 1   
    20    10    20 2   
    21    11    12 2   
    22    11    23 1   
    23    12    13 1   
    24    13    14 2   
    25    14    15 1   
    26    14    33 1   
    27    15    24 1   
    28    15    34 1   
    29    15    35 1   
    30    16    26 1   
    31    16    36 1   
    32    16    37 1   
    33    16    38 1   
    34    17    21 2   
    35    17    22 1   
    36    17    23 1   
    37    18    22 1   
    38    18    39 1   
    39    18    40 1   
    40    18    41 1   
    41    19    42 1   
    42    23    43 1   
    43    24    25 1   
    44    25    26 1   
@<TRIPOS>SUBSTRUCTURE
     1 MTC         1 TEMP              0 ****  ****    0 ROOT
