@<TRIPOS>MOLECULE
MTE
   36    39     1     0     0
SMALL
bcc


@<TRIPOS>ATOM
      1 N1          0.2830   -0.1280    0.1010 nc        1 MTE     -0.634300
      2 C2          1.5920   -0.1130    0.3530 cd        1 MTE      0.527800
      3 N2          2.5550   -0.1260   -0.7290 nh        1 MTE     -0.856800
      4 N3          2.1310   -0.1040    1.6530 n         1 MTE     -0.467400
      5 C4          1.2920   -0.1260    2.7750 c         1 MTE      0.684700
      6 O4          1.8410   -0.1010    3.8980 o         1 MTE     -0.670500
      7 N5         -1.0140   -0.3140    3.5990 nh        1 MTE     -0.689000
      8 C6         -2.4650   -0.2900    3.3630 c3        1 MTE      0.303700
      9 C7         -2.8390    0.2980    1.9710 c3        1 MTE      0.360300
     10 N8         -2.0020   -0.2350    0.8930 nh        1 MTE     -0.669000
     11 C9         -0.1640   -0.1720    2.5180 cd        1 MTE      0.017800
     12 C10        -0.6040   -0.1600    1.1770 cc        1 MTE      0.212600
     13 C1'        -3.2430    0.4130    4.4010 c2        1 MTE     -0.360600
     14 S1'        -3.7760   -0.5320    5.6680 sh        1 MTE     -0.367400
     15 C2'        -3.6050    1.7590    4.2670 c2        1 MTE     -0.055500
     16 S2'        -4.0440    2.6930    5.4820 s4        1 MTE     -0.042900
     17 C3'        -3.5400    2.4060    2.9180 c3        1 MTE      0.190300
     18 O3'        -2.7210    1.7190    1.9530 os        1 MTE     -0.473600
     19 C4'        -2.9490    3.8440    2.9030 c3        1 MTE      0.196400
     20 O4'        -3.9400    4.7940    3.0920 os        1 MTE     -0.581200
     21 P          -3.8120    5.6960    4.5050 p5        1 MTE      1.478800
     22 O1P        -2.4720    6.3270    4.4780 o         1 MTE     -0.865000
     23 O2P        -5.0590    6.4870    4.6120 o         1 MTE     -0.865000
     24 O3P        -3.8130    4.4300    5.4870 os        1 MTE     -0.636200
     25 HN21        2.1290   -0.4840   -1.5630 hn        1 MTE      0.367300
     26 HN22        2.8680    0.8130   -0.8960 hn        1 MTE      0.367300
     27 HN3         3.1150   -0.1000    1.7900 hn        1 MTE      0.321500
     28 HN5        -0.7220    0.1810    4.4200 hn        1 MTE      0.421800
     29 H6         -2.7530   -1.3870    3.3470 h1        1 MTE      0.045700
     30 H7         -3.9060    0.0100    1.7340 h2        1 MTE      0.054700
     31 HN8        -2.2240    0.2180    0.0240 hn        1 MTE      0.379800
     32 H1S        -2.8560   -0.3030    6.5990 hs        1 MTE      0.097800
     33 H2S        -3.7190    2.1340    6.6240 hs        1 MTE      0.114000
     34 H3'        -4.5860    2.4340    2.4910 h1        1 MTE      0.040700
     35 H4'1       -2.1460    3.9370    3.6850 h1        1 MTE      0.026200
     36 H4'2       -2.4870    4.0050    1.8860 h1        1 MTE      0.026200
@<TRIPOS>BOND
     1    1    2 2
     2    1   12 1
     3    2    3 1
     4    2    4 1
     5    3   25 1
     6    3   26 1
     7    4    5 1
     8    4   27 1
     9    5    6 2
    10    5   11 1
    11    7    8 1
    12    7   11 1
    13    7   28 1
    14    8    9 1
    15    8   13 1
    16    8   29 1
    17    9   10 1
    18    9   18 1
    19    9   30 1
    20   10   12 1
    21   10   31 1
    22   11   12 2
    23   13   14 1
    24   13   15 2
    25   14   32 1
    26   15   16 1
    27   15   17 1
    28   16   24 1
    29   16   33 1
    30   17   18 1
    31   17   19 1
    32   17   34 1
    33   19   20 1
    34   19   35 1
    35   19   36 1
    36   20   21 1
    37   21   22 1
    38   21   23 1
    39   21   24 1
@<TRIPOS>SUBSTRUCTURE
     1 MTE         1 TEMP              0 ****  ****    0 ROOT
