@<TRIPOS>MOLECULE
molecule
    9     8     1     0     0
SMALL
bcc


@<TRIPOS>ATOM
      1 C            0.0000     0.0000     0.0000 cs         1 MTF       0.392200
      2 S            1.5990     0.0000     0.0000 s          1 MTF      -0.523400
      3 N           -0.6730     0.0000     1.1660 ns         1 MTF      -0.490900
      4 CM           0.0580     0.0000     2.4350 c3         1 MTF       0.083300
      5 H           -0.5420     0.0140    -0.9380 h5         1 MTF       0.056200
      6 HN          -1.6740    -0.0000     1.1660 hn         1 MTF       0.311500
      7 HM1          0.6800     0.8850     2.4930 h1         1 MTF       0.056700
      8 HM2          0.6810    -0.8840     2.4930 h1         1 MTF       0.056700
      9 HM3         -0.6470    -0.0000     3.2580 h1         1 MTF       0.056700
@<TRIPOS>BOND
     1     1     2 2
     2     1     3 1
     3     1     5 1
     4     3     4 1
     5     3     6 1
     6     4     7 1
     7     4     8 1
     8     4     9 1
@<TRIPOS>SUBSTRUCTURE
     1 MTF         1 TEMP              0 ****  ****    0 ROOT
