@<TRIPOS>MOLECULE
MTG
   11    10     1     0     0
SMALL
bcc


@<TRIPOS>ATOM
      1 O5          0.1430    0.6320   -0.3200 o         1 MTG     -0.828300
      2 O6          1.6960   -0.9190   -0.7410 o         1 MTG     -0.828300
      3 C1          1.1560   -0.0510   -0.0020 c         1 MTG      0.928600
      4 C2          1.8290    0.2550    1.3560 c3        1 MTG     -0.126300
      5 S3          1.1570   -0.7590    2.6380 ss        1 MTG     -0.289200
      6 C4          2.0840   -0.2190    4.0220 c3        1 MTG     -0.049000
      7 H21         1.6640    1.3290    1.6010 h1        1 MTG      0.039700
      8 H22         2.9220    0.0650    1.2610 h1        1 MTG      0.039700
      9 H41         1.7320   -0.8060    4.8990 h1        1 MTG      0.037700
     10 H42         3.1750   -0.3920    3.8840 h1        1 MTG      0.037700
     11 H43         1.9310    0.8650    4.2260 h1        1 MTG      0.037700
@<TRIPOS>BOND
     1    1    3 1   
     2    2    3 1   
     3    3    4 1   
     4    4    5 1   
     5    4    7 1   
     6    4    8 1   
     7    5    6 1   
     8    6    9 1   
     9    6   10 1   
    10    6   11 1   
@<TRIPOS>SUBSTRUCTURE
     1 MTG         1 TEMP              0 ****  ****    0 ROOT
