@<TRIPOS>MOLECULE
molecule
   11    10     1     0     0
SMALL
bcc


@<TRIPOS>ATOM
      1 O5           0.0000     0.0000     0.0000 o          1 MTG      -0.829300
      2 O6           1.8300    -0.0000    -1.0560 o          1 MTG      -0.829300
      3 C1           1.2200     0.0000     0.0000 c          1 MTG       0.932600
      4 C2           1.9740     0.0000     1.3040 c3         1 MTG      -0.101300
      5 S3           0.7940     0.0000     2.6830 ss         1 MTG      -0.319200
      6 C4           1.9480    -0.0000     4.0840 c3         1 MTG      -0.036000
      7 H21          2.5970    -0.8850     1.3610 h1         1 MTG       0.037700
      8 H22          2.5970     0.8850     1.3610 h1         1 MTG       0.037700
      9 H41          2.5710    -0.8850     4.0380 h1         1 MTG       0.035367
     10 H42          1.3890    -0.0000     5.0120 h1         1 MTG       0.035367
     11 H43          2.5710     0.8850     4.0380 h1         1 MTG       0.035367
@<TRIPOS>BOND
     1     1     3 1
     2     2     3 1
     3     3     4 1
     4     4     5 1
     5     4     7 1
     6     4     8 1
     7     5     6 1
     8     6     9 1
     9     6    10 1
    10     6    11 1
@<TRIPOS>SUBSTRUCTURE
     1 MTG         1 TEMP              0 ****  ****    0 ROOT
