@<TRIPOS>MOLECULE
MTH
   36    38     1     0     0
SMALL
bcc


@<TRIPOS>ATOM
      1 CS           0.0000     0.0000     0.0000 c3         1 MTH       0.109000
      2 S5'          1.8140     0.0000     0.0000 ss         1 MTH      -0.375200
      3 C5'          2.1300     0.0000     1.7870 c3         1 MTH       0.064700
      4 C4'          3.6390    -0.0010     2.0370 c3         1 MTH       0.179100
      5 O4'          4.2090     1.2410     1.5900 os         1 MTH      -0.384600
      6 C2'          4.7400     1.1550     3.8790 c3         1 MTH       0.129100
      7 O2'          5.8050     0.8520     4.7850 oh         1 MTH      -0.534800
      8 C3'          3.9190    -0.1180     3.5490 c3         1 MTH       0.124100
      9 O3'          4.6800    -1.2940     3.8320 oh         1 MTH      -0.545800
     10 C1'          5.2960     1.5540     2.4890 c3         1 MTH       0.142800
     11 N9           5.6060     2.9860     2.4440 na         1 MTH       0.309900
     12 C8           4.7320     3.9670     2.0560 cc         1 MTH      -0.258100
     13 C7           5.3320     5.1670     2.1310 cd         1 MTH      -0.131200
     14 C5           6.6930     4.9280     2.6040 ca         1 MTH      -0.416400
     15 C6           7.8040     5.7380     2.8880 ca         1 MTH       0.587200
     16 N6           7.7400     7.1110     2.7270 nv         1 MTH      -0.502500
     17 N1           8.9190     5.1540     3.3150 nb         1 MTH      -0.750000
     18 C2           8.9840     3.8430     3.4710 ca         1 MTH       0.688900
     19 N3           7.9690     3.0460     3.2180 nb         1 MTH      -0.678000
     20 C4           6.8070     3.5380     2.7910 ca         1 MTH       0.318800
     21 HCS1        -0.3610     0.0020    -1.0210 h1         1 MTH       0.031033
     22 HCS2        -0.3610     0.8840     0.5120 h1         1 MTH       0.031033
     23 HCS3        -0.3610    -0.8850     0.5090 h1         1 MTH       0.031033
     24 H5'1         1.6900     0.8850     2.2310 h1         1 MTH       0.039700
     25 H5'2         1.6890    -0.8840     2.2310 h1         1 MTH       0.039700
     26 H4'1         4.1040    -0.8270     1.5130 h1         1 MTH       0.057700
     27 H2'1         4.0990     1.9330     4.2730 h1         1 MTH       0.021700
     28 HO21         5.5490     1.0900     5.6610 ho         1 MTH       0.387000
     29 H3'1         2.9890    -0.1200     4.1040 h1         1 MTH       0.010700
     30 HO31         4.1660    -1.8810     4.3620 ho         1 MTH       0.388000
     31 H1'1         6.1690     0.9610     2.2460 h2         1 MTH       0.074700
     32 HC81         3.7100     3.8010     1.7360 h4         1 MTH       0.153000
     33 HC71         4.8910     6.1260     1.8880 ha         1 MTH       0.124000
     34 HN61         6.8940     7.5380     2.4050 hn         1 MTH       0.270300
     35 HN62         8.5390     7.6770     2.9320 hn         1 MTH       0.270300
     36 HC21         9.9120     3.4070     3.8220 h5         1 MTH      -0.006900
@<TRIPOS>BOND
     1     1     2 1   
     2     1    21 1   
     3     1    22 1   
     4     1    23 1   
     5     2     3 1   
     6     3     4 1   
     7     3    24 1   
     8     3    25 1   
     9     4     5 1   
    10     4     8 1   
    11     4    26 1   
    12     5    10 1   
    13     6     7 1   
    14     6     8 1   
    15     6    10 1   
    16     6    27 1   
    17     7    28 1   
    18     8     9 1   
    19     8    29 1   
    20     9    30 1   
    21    10    11 1   
    22    10    31 1   
    23    11    12 1   
    24    11    20 1   
    25    12    13 2   
    26    12    32 1   
    27    13    14 1   
    28    13    33 1   
    29    14    15 ar  
    30    14    20 ar  
    31    15    16 1   
    32    15    17 ar  
    33    16    34 1   
    34    16    35 1   
    35    17    18 ar  
    36    18    19 ar  
    37    18    36 1   
    38    19    20 ar  
@<TRIPOS>SUBSTRUCTURE
     1 MTH         1 TEMP              0 ****  ****    0 ROOT
