@<TRIPOS>MOLECULE
MTI
   37    39     1     0     0
SMALL
bcc


@<TRIPOS>ATOM
      1 CS          2.1980    0.7680   -0.8860 c3        1 MTI     -0.054000
      2 S5'         2.9230    1.8890    0.2500 ss        1 MTI     -0.252200
      3 C5'         2.5800    1.1990    1.8310 c3        1 MTI     -0.072300
      4 C4'         3.6180    0.1800    2.2820 c3        1 MTI      0.095500
      5 N4'         5.0270    0.6530    2.0460 n4        1 MTI     -0.763000
      6 C2'         4.8780    0.0970    4.4270 c3        1 MTI      0.139100
      7 O2'         5.5950   -1.1080    4.5820 oh        1 MTI     -0.584800
      8 C3'         3.4790   -0.1330    3.8000 c3        1 MTI      0.100100
      9 O3'         3.1620   -1.4950    3.9710 oh        1 MTI     -0.579800
     10 C1'         5.6880    0.9160    3.3910 c3        1 MTI      0.241800
     11 C9          5.7900    2.3560    3.6670 cc        1 MTI     -0.251300
     12 C8          5.4310    3.0880    4.8230 cd        1 MTI     -0.053300
     13 N7          5.8220    4.4040    4.6830 na        1 MTI     -0.104100
     14 C5          6.4380    4.5510    3.4470 cd        1 MTI     -0.213900
     15 C6          7.0430    5.7300    2.8310 c         1 MTI      0.727100
     16 O6          7.0950    6.8650    3.3250 o         1 MTI     -0.582500
     17 N1          7.5940    5.4620    1.5560 n         1 MTI     -0.475400
     18 C2          7.5320    4.1980    0.9860 cd        1 MTI      0.518800
     19 N3          6.9840    3.1160    1.5160 nc        1 MTI     -0.648100
     20 C4          6.4380    3.2880    2.7770 cc        1 MTI      0.132400
     21 HS1         2.3520    1.2270   -1.8930 h1        1 MTI      0.083367
     22 HS2         2.6800   -0.2340   -0.8660 h1        1 MTI      0.083367
     23 HS3         1.1050    0.6480   -0.7130 h1        1 MTI      0.083367
     24 H5'1        1.5770    0.7040    1.8610 h1        1 MTI      0.109200
     25 H5'2        2.5490    2.0720    2.5340 h1        1 MTI      0.109200
     26 H4'         3.4780   -0.7810    1.7000 hx        1 MTI      0.118700
     27 H4'1        5.0160    1.5020    1.4530 hn        1 MTI      0.471300
     28 H4'2        5.5550   -0.0780    1.5630 hn        1 MTI      0.471300
     29 H1          4.7950    0.6310    5.4090 h1        1 MTI      0.084700
     30 H2'         5.0360   -1.7320    5.0700 ho        1 MTI      0.450000
     31 H3'         2.7140    0.5390    4.2710 h1        1 MTI      0.082700
     32 H2          2.2030   -1.5710    4.0700 ho        1 MTI      0.436000
     33 H1'         6.7390    0.4830    3.3250 hx        1 MTI      0.141700
     34 H8          4.9390    2.7440    5.7370 h4        1 MTI      0.187000
     35 HN7         5.7150    5.1310    5.3510 hn        1 MTI      0.339700
     36 HN1         8.0450    6.2090    1.0730 hn        1 MTI      0.359500
     37 H3          7.9940    4.0960   -0.0220 h5        1 MTI      0.072800
@<TRIPOS>BOND
     1    1    2 1
     2    1   21 1
     3    1   22 1
     4    1   23 1
     5    2    3 1
     6    3    4 1
     7    3   24 1
     8    3   25 1
     9    4    5 1
    10    4    8 1
    11    4   26 1
    12    5   10 1
    13    5   27 1
    14    5   28 1
    15    6    7 1
    16    6    8 1
    17    6   10 1
    18    6   29 1
    19    7   30 1
    20    8    9 1
    21    8   31 1
    22    9   32 1
    23   10   11 1
    24   10   33 1
    25   11   12 2
    26   11   20 1
    27   12   13 1
    28   12   34 1
    29   13   14 1
    30   13   35 1
    31   14   15 1
    32   14   20 2
    33   15   16 2
    34   15   17 1
    35   17   18 1
    36   17   36 1
    37   18   19 2
    38   18   37 1
    39   19   20 1
@<TRIPOS>SUBSTRUCTURE
     1 MTI         1 TEMP              0 ****  ****    0 ROOT
