@<TRIPOS>MOLECULE
molecule
   29    29     1     0     0
SMALL
bcc


@<TRIPOS>ATOM
      1 N            0.0000     0.0000     0.0000 n7         1 MTJ      -0.816200
      2 CN          -0.4230     0.7050    -1.2180 c3         1 MTJ       0.145100
      3 CA           1.4670     0.0000     0.0000 c3         1 MTJ       0.051500
      4 CB           1.9780     0.0000     1.4420 c3         1 MTJ      -0.013100
      5 CG           1.4760     1.2290     2.1520 ca         1 MTJ      -0.059300
      6 CD1          0.2690     1.1930     2.8240 ca         1 MTJ      -0.082500
      7 CE1         -0.1940     2.3190     3.4760 ca         1 MTJ      -0.204500
      8 CZ           0.5550     3.4870     3.4580 ca         1 MTJ       0.084100
      9 OM           0.1020     4.5960     4.1000 os         1 MTJ      -0.313900
     10 CM           1.0810     5.6180     3.9010 c3         1 MTJ       0.111700
     11 CE2          1.7660     3.5200     2.7850 ca         1 MTJ      -0.204500
     12 CD2          2.2270     2.3890     2.1380 ca         1 MTJ      -0.082500
     13 C            1.9700    -1.2300    -0.7120 c          1 MTJ       0.866600
     14 O27          3.0250    -1.1990    -1.2990 o          1 MTJ      -0.844800
     15 O28          1.2450    -2.3580    -0.6940 o          1 MTJ      -0.844800
     16 HN1         -0.3340    -0.9430    -0.0270 hn         1 MTJ       0.381800
     17 HN1A         0.1260     1.6340    -1.3070 h1         1 MTJ       0.016700
     18 HN2         -1.4840     0.9160    -1.1620 h1         1 MTJ       0.016700
     19 HN3         -0.2240     0.0830    -2.0820 h1         1 MTJ       0.016700
     20 HA           1.8280     0.8850    -0.5100 h1         1 MTJ       0.046700
     21 HB1          3.0610     0.0000     1.4420 hc         1 MTJ       0.051200
     22 HB2          1.6170    -0.8850     1.9530 hc         1 MTJ       0.051200
     23 HD1         -0.2990     0.2720     2.8660 ha         1 MTJ       0.136000
     24 HE1         -1.1500     2.2960     3.9850 ha         1 MTJ       0.125000
     25 HM1          0.7670     6.5220     4.4070 h1         1 MTJ       0.034700
     26 HM2          2.0320     5.2900     4.3020 h1         1 MTJ       0.034700
     27 HM3          1.1850     5.8150     2.8410 h1         1 MTJ       0.034700
     28 HE2          2.3290     4.4440     2.7280 ha         1 MTJ       0.125000
     29 HD2          3.2410     2.5540     1.7960 ha         1 MTJ       0.136000
@<TRIPOS>BOND
     1     1     2 1
     2     1     3 1
     3     1    16 1
     4     2    17 1
     5     2    18 1
     6     2    19 1
     7     3     4 1
     8     3    13 1
     9     3    20 1
    10     4     5 1
    11     4    21 1
    12     4    22 1
    13     5     6 ar
    14     5    12 ar
    15     6     7 ar
    16     6    23 1
    17     7     8 ar
    18     7    24 1
    19     8     9 1
    20     8    11 ar
    21     9    10 1
    22    10    25 1
    23    10    26 1
    24    10    27 1
    25    11    12 ar
    26    11    28 1
    27    12    29 1
    28    13    14 1
    29    13    15 1
@<TRIPOS>SUBSTRUCTURE
     1 MTJ         1 TEMP              0 ****  ****    0 ROOT
