@<TRIPOS>MOLECULE
MTK
   76    80     1     0     0
SMALL
bcc


@<TRIPOS>ATOM
      1 CAQ        -1.9760   -1.3490    1.8440 ca        1 MTK     -0.217300
      2 CAS        -1.7660   -1.6660    0.5290 ca        1 MTK     -0.092000
      3 CBK        -0.4920   -1.4180   -0.0570 ca        1 MTK     -0.154300
      4 CAR        -0.2100   -1.7210   -1.4120 ca        1 MTK     -0.098000
      5 CAO         1.0280   -1.4660   -1.9460 ca        1 MTK     -0.137000
      6 CBE         2.0360   -0.8930   -1.1290 ca        1 MTK      0.017400
      7 CLAF        3.5640   -0.5890   -1.8220 cl        1 MTK     -0.110400
      8 CAU         1.8070   -0.5840    0.1910 ca        1 MTK     -0.161300
      9 CBL         0.5210   -0.8430    0.7690 ca        1 MTK      0.406600
     10 NBB         0.3060   -0.5310    2.0960 nb        1 MTK     -0.671000
     11 CBG        -0.9000   -0.7740    2.6120 ca        1 MTK      0.498100
     12 CAH        -1.1420   -0.5070    4.0370 ce        1 MTK     -0.273800
     13 CAG        -2.2170    0.0980    4.5590 cf        1 MTK     -0.046200
     14 CBF        -3.3390    0.6970    3.8540 ca        1 MTK     -0.102800
     15 CAT        -4.6280    0.5450    4.3860 ca        1 MTK     -0.098000
     16 CAL        -3.1570    1.4580    2.6910 ca        1 MTK     -0.122000
     17 CAK        -4.2510    2.0510    2.0660 ca        1 MTK     -0.153000
     18 CAN        -5.5340    1.8870    2.5870 ca        1 MTK     -0.108000
     19 CBI        -5.7300    1.1300    3.7470 ca        1 MTK     -0.061300
     20 CBM        -7.0800    0.9340    4.3390 c3        1 MTK      0.037700
     21 SBC        -8.2090    0.1840    3.1700 ss        1 MTK     -0.379200
     22 CAZ        -8.1050   -1.5600    3.5100 c3        1 MTK      0.053700
     23 CBO        -8.4550   -2.0160    4.8940 cx        1 MTK     -0.099000
     24 CAX        -9.6990   -1.4520    5.5430 cx        1 MTK     -0.129900
     25 CAY        -9.7170   -2.8540    5.0300 cx        1 MTK     -0.129900
     26 CBA        -7.2860   -2.3910    5.7640 c3        1 MTK     -0.166400
     27 CBD        -7.0960   -1.4860    6.9900 c         1 MTK      0.907600
     28 OAC        -6.1640   -0.6220    6.9570 o         1 MTK     -0.852800
     29 OAD        -7.8450   -1.6330    7.9970 o         1 MTK     -0.852800
     30 CAW        -7.6960    2.2240    4.8490 c3        1 MTK     -0.046400
     31 CAV        -7.0780    2.6000    6.1880 c3        1 MTK     -0.068100
     32 CBH        -7.8490    3.6670    6.8870 ca        1 MTK     -0.052300
     33 CAM        -7.8680    4.9320    6.2750 ca        1 MTK     -0.144000
     34 CAI        -8.5350    6.0080    6.8480 ca        1 MTK     -0.144000
     35 CAJ        -9.1990    5.8320    8.0610 ca        1 MTK     -0.155000
     36 CAP        -9.1880    4.5860    8.6800 ca        1 MTK     -0.113000
     37 CBJ        -8.5200    3.4890    8.1120 ca        1 MTK     -0.051300
     38 CBN        -8.5640    2.1610    8.8390 c3        1 MTK      0.204100
     39 CAA        -9.3680    1.1370    8.0380 c3        1 MTK     -0.139100
     40 CAB        -7.1660    1.6340    9.1740 c3        1 MTK     -0.139100
     41 OAE        -9.2620    2.3840   10.0820 oh        1 MTK     -0.631800
     42 HAQ        -2.9470   -1.5070    2.3370 ha        1 MTK      0.168000
     43 HAS        -2.5630   -2.1070   -0.0890 ha        1 MTK      0.139000
     44 HAR        -1.0070   -2.1630   -2.0300 ha        1 MTK      0.136000
     45 HAO         1.2500   -1.6990   -2.9980 ha        1 MTK      0.142000
     46 HAU         2.5960   -0.1380    0.8180 ha        1 MTK      0.161000
     47 HAH        -0.3440   -0.8700    4.7100 ha        1 MTK      0.140000
     48 HAG        -2.2990    0.1650    5.6630 ha        1 MTK      0.145000
     49 HAT        -4.7930   -0.0330    5.3210 ha        1 MTK      0.204000
     50 HAL        -2.1460    1.5880    2.2790 ha        1 MTK      0.127000
     51 HAK        -4.1020    2.6510    1.1570 ha        1 MTK      0.120000
     52 HAN        -6.3990    2.3450    2.0840 ha        1 MTK      0.134000
     53 HBM        -6.9950    0.2140    5.2140 h1        1 MTK      0.156700
     54 HAZ1       -8.8250   -1.9880    2.7650 h1        1 MTK      0.058700
     55 HAZ2       -7.0790   -1.9140    3.2400 h1        1 MTK      0.058700
     56 HAX1      -10.2630   -0.6710    5.0020 hc        1 MTK      0.073700
     57 HAX2       -9.6660   -1.2770    6.6390 hc        1 MTK      0.073700
     58 HAY1      -10.3010   -3.0910    4.1240 hc        1 MTK      0.073700
     59 HAY2       -9.7140   -3.6890    5.7530 hc        1 MTK      0.073700
     60 HBA1       -7.4280   -3.4390    6.1370 hc        1 MTK      0.035200
     61 HBA2       -6.3360   -2.3680    5.1690 hc        1 MTK      0.035200
     62 HAW1       -7.5460    3.0510    4.1080 hc        1 MTK      0.044700
     63 HAW2       -8.8020    2.0750    4.9720 hc        1 MTK      0.044700
     64 HAV1       -6.9850    1.6680    6.8150 hc        1 MTK      0.081700
     65 HAV2       -6.0310    2.9700    6.0150 hc        1 MTK      0.081700
     66 HAM        -7.3390    5.0650    5.3190 ha        1 MTK      0.123000
     67 HAI        -8.5370    6.9870    6.3510 ha        1 MTK      0.114000
     68 HAJ        -9.7300    6.6720    8.5280 ha        1 MTK      0.115000
     69 HAP        -9.7170    4.4600    9.6390 ha        1 MTK      0.148000
     70 HAA1       -9.2050    0.1110    8.4600 hc        1 MTK      0.060700
     71 HAA2      -10.4530    1.3920    8.0800 hc        1 MTK      0.060700
     72 HAA3       -9.0390    1.1170    6.9720 hc        1 MTK      0.060700
     73 HAB1       -7.0760    1.4720   10.2750 hc        1 MTK      0.060700
     74 HAB2       -6.9730    0.6520    8.6550 hc        1 MTK      0.060700
     75 HAB3       -6.3800    2.3640    8.8680 hc        1 MTK      0.060700
     76 HOAE       -9.3570    1.5140   10.4860 ho        1 MTK      0.403000
@<TRIPOS>BOND
     1    1    2 ar  
     2    1   11 ar  
     3    1   42 1   
     4    2    3 ar  
     5    2   43 1   
     6    3    4 ar  
     7    3    9 ar  
     8    4    5 ar  
     9    4   44 1   
    10    5    6 ar  
    11    5   45 1   
    12    6    7 1   
    13    6    8 ar  
    14    8    9 ar  
    15    8   46 1   
    16    9   10 ar  
    17   10   11 ar  
    18   11   12 1   
    19   12   13 2   
    20   12   47 1   
    21   13   14 1   
    22   13   48 1   
    23   14   15 ar  
    24   14   16 ar  
    25   15   19 ar  
    26   15   49 1   
    27   16   17 ar  
    28   16   50 1   
    29   17   18 ar  
    30   17   51 1   
    31   18   19 ar  
    32   18   52 1   
    33   19   20 1   
    34   20   21 1   
    35   20   30 1   
    36   20   53 1   
    37   21   22 1   
    38   22   23 1   
    39   22   54 1   
    40   22   55 1   
    41   23   24 1   
    42   23   25 1   
    43   23   26 1   
    44   24   25 1   
    45   24   56 1   
    46   24   57 1   
    47   25   58 1   
    48   25   59 1   
    49   26   27 1   
    50   26   60 1   
    51   26   61 1   
    52   27   28 1   
    53   27   29 1   
    54   30   31 1   
    55   30   62 1   
    56   30   63 1   
    57   31   32 1   
    58   31   64 1   
    59   31   65 1   
    60   32   33 ar  
    61   32   37 ar  
    62   33   34 ar  
    63   33   66 1   
    64   34   35 ar  
    65   34   67 1   
    66   35   36 ar  
    67   35   68 1   
    68   36   37 ar  
    69   36   69 1   
    70   37   38 1   
    71   38   39 1   
    72   38   40 1   
    73   38   41 1   
    74   39   70 1   
    75   39   71 1   
    76   39   72 1   
    77   40   73 1   
    78   40   74 1   
    79   40   75 1   
    80   41   76 1   
@<TRIPOS>SUBSTRUCTURE
     1 MTK         1 TEMP              0 ****  ****    0 ROOT
