@<TRIPOS>MOLECULE
molecule
   76    80     1     0     0
SMALL
bcc


@<TRIPOS>ATOM
      1 CAQ          0.0000     0.0000     0.0000 ca         1 MTK      -0.244300
      2 CAS          1.3620     0.0000     0.0000 ca         1 MTK      -0.087000
      3 CBK          2.0310     0.0000     1.2410 ca         1 MTK      -0.156300
      4 CAR          3.4330    -0.0000     1.3110 ca         1 MTK      -0.097000
      5 CAO          4.0480    -0.0010     2.5260 ca         1 MTK      -0.141000
      6 CBE          3.3020    -0.0000     3.7050 ca         1 MTK       0.027400
      7 ClAF         4.1230     0.0000     5.2350 cl         1 MTK      -0.112400
      8 CAU          1.9410     0.0020     3.6740 ca         1 MTK      -0.159300
      9 CBL          1.2710     0.0010     2.4370 ca         1 MTK       0.443600
     10 NBB         -0.0630     0.0010     2.3810 nb         1 MTK      -0.689000
     11 CBG         -0.7000     0.0020     1.2210 ca         1 MTK       0.519100
     12 CAH         -2.1720     0.0020     1.2070 ce         1 MTK      -0.284800
     13 CAG         -2.8540     0.0030     2.3640 cf         1 MTK      -0.031200
     14 CBF         -4.3270     0.0050     2.3510 ca         1 MTK      -0.085800
     15 CAT         -5.0410     0.0060     3.5530 ca         1 MTK      -0.097000
     16 CAL         -5.0180     0.0100     1.1360 ca         1 MTK      -0.119000
     17 CAK         -6.3970     0.0120     1.1310 ca         1 MTK      -0.132000
     18 CAN         -7.0970     0.0080     2.3250 ca         1 MTK      -0.097000
     19 CBI         -6.4200     0.0070     3.5320 ca         1 MTK      -0.053300
     20 CBM         -7.1920     0.0070     4.8260 c3         1 MTK       0.041700
     21 SBC         -8.2370    -1.4720     4.9080 ss         1 MTK      -0.303200
     22 CAZ         -8.8180    -1.4670     6.6260 c3         1 MTK       0.058700
     23 CBO         -9.6230    -2.7400     6.8960 cx         1 MTK      -0.127000
     24 CAX         -8.9560    -3.8330     7.7350 cx         1 MTK      -0.119400
     25 CAY        -10.0860    -2.9920     8.3330 cx         1 MTK      -0.119400
     26 CBA        -10.5530    -3.1850     5.7660 c3         1 MTK      -0.146400
     27 CBD        -11.2240    -4.4800     6.1480 c          1 MTK       0.893600
     28 OAC        -11.9730    -5.1380     5.2500 o          1 MTK      -0.850300
     29 OAD        -11.0860    -4.9260     7.2630 o          1 MTK      -0.850300
     30 CAW         -8.0710     1.2580     4.8950 c3         1 MTK      -0.073400
     31 CAV         -7.1840     2.5010     4.9840 c3         1 MTK      -0.058100
     32 CBH         -8.0460     3.7200     5.1900 ca         1 MTK      -0.069300
     33 CAM         -8.7710     4.2400     4.1340 ca         1 MTK      -0.126000
     34 CAI         -9.5610     5.3580     4.3230 ca         1 MTK      -0.128000
     35 CAJ         -9.6280     5.9560     5.5680 ca         1 MTK      -0.142000
     36 CAP         -8.9030     5.4350     6.6240 ca         1 MTK      -0.100000
     37 CBJ         -8.1160     4.3140     6.4360 ca         1 MTK      -0.072300
     38 CBN         -7.3310     3.7440     7.5880 c3         1 MTK       0.198100
     39 CAA         -7.6770     2.2630     7.7570 c3         1 MTK      -0.123600
     40 CAB         -5.8330     3.8890     7.3070 c3         1 MTK      -0.123600
     41 OAE         -7.6610     4.4500     8.7870 oh         1 MTK      -0.607800
     42 HAQ         -0.4160    -0.0160    -1.0000 ha         1 MTK       0.140000
     43 HAS          1.8560    -0.0030    -0.9640 ha         1 MTK       0.138000
     44 HAR          4.1280    -0.0060     0.4800 ha         1 MTK       0.137000
     45 HAO          5.1280    -0.0040     2.6190 ha         1 MTK       0.140000
     46 HAU          1.4660    -0.0210     4.6480 ha         1 MTK       0.161000
     47 HAH         -2.7050     0.0030     0.2640 ha         1 MTK       0.139000
     48 HAG         -2.3220     0.0030     3.3070 ha         1 MTK       0.154000
     49 HAT         -4.5120     0.0050     4.4980 ha         1 MTK       0.134000
     50 HAL         -4.4720     0.0130     0.2010 ha         1 MTK       0.125000
     51 HAK         -6.9340     0.0150     0.1900 ha         1 MTK       0.130000
     52 HAN         -8.1810     0.0090     2.3150 ha         1 MTK       0.151000
     53 HBM         -6.4990     0.0060     5.6590 h1         1 MTK       0.060700
     54 HAZ1        -9.4470    -0.6000     6.7920 h1         1 MTK       0.042200
     55 HAZ2        -7.9670    -1.4290     7.2950 h1         1 MTK       0.042200
     56 HAX1        -9.2190    -4.8500     7.4720 hc         1 MTK       0.078950
     57 HAX2        -7.9610    -3.6030     8.0960 hc         1 MTK       0.078950
     58 HAY1       -11.0390    -3.4950     8.4360 hc         1 MTK       0.078950
     59 HAY2        -9.7810    -2.2490     9.0600 hc         1 MTK       0.078950
     60 HBA1        -9.9770    -3.3300     4.8600 hc         1 MTK       0.043700
     61 HBA2       -11.3060    -2.4250     5.5970 hc         1 MTK       0.043700
     62 HAW1        -8.6860     1.3160     4.0050 hc         1 MTK       0.060700
     63 HAW2        -8.7070     1.2040     5.7710 hc         1 MTK       0.060700
     64 HAV1        -6.5000     2.3980     5.8180 hc         1 MTK       0.055200
     65 HAV2        -6.6200     2.6090     4.0660 hc         1 MTK       0.055200
     66 HAM         -8.7190     3.7720     3.1580 ha         1 MTK       0.132000
     67 HAI        -10.1290     5.7650     3.4950 ha         1 MTK       0.124000
     68 HAJ        -10.2460     6.8330     5.7150 ha         1 MTK       0.124000
     69 HAP         -8.9570     5.9020     7.6000 ha         1 MTK       0.148000
     70 HAA1        -6.9190     1.6580     7.2740 hc         1 MTK       0.047533
     71 HAA2        -8.6410     2.0630     7.3060 hc         1 MTK       0.047533
     72 HAA3        -7.7140     2.0190     8.8120 hc         1 MTK       0.047533
     73 HAB1        -5.3470     2.9300     7.4370 hc         1 MTK       0.047533
     74 HAB2        -5.4050     4.6080     7.9960 hc         1 MTK       0.047533
     75 HAB3        -5.6880     4.2330     6.2900 hc         1 MTK       0.047533
     76 HOAE        -7.0460     4.2230     9.4650 ho         1 MTK       0.403000
@<TRIPOS>BOND
     1     1     2 ar
     2     1    11 ar
     3     1    42 1
     4     2     3 ar
     5     2    43 1
     6     3     4 ar
     7     3     9 ar
     8     4     5 ar
     9     4    44 1
    10     5     6 ar
    11     5    45 1
    12     6     7 1
    13     6     8 ar
    14     8     9 ar
    15     8    46 1
    16     9    10 ar
    17    10    11 ar
    18    11    12 1
    19    12    13 2
    20    12    47 1
    21    13    14 1
    22    13    48 1
    23    14    15 ar
    24    14    16 ar
    25    15    19 ar
    26    15    49 1
    27    16    17 ar
    28    16    50 1
    29    17    18 ar
    30    17    51 1
    31    18    19 ar
    32    18    52 1
    33    19    20 1
    34    20    30 1
    35    20    21 1
    36    20    53 1
    37    21    22 1
    38    22    23 1
    39    22    54 1
    40    22    55 1
    41    23    25 1
    42    23    24 1
    43    23    26 1
    44    24    25 1
    45    24    56 1
    46    24    57 1
    47    25    58 1
    48    25    59 1
    49    26    27 1
    50    26    60 1
    51    26    61 1
    52    27    29 1
    53    27    28 1
    54    30    31 1
    55    30    62 1
    56    30    63 1
    57    31    32 1
    58    31    64 1
    59    31    65 1
    60    32    37 ar
    61    32    33 ar
    62    33    34 ar
    63    33    66 1
    64    34    35 ar
    65    34    67 1
    66    35    36 ar
    67    35    68 1
    68    36    37 ar
    69    36    69 1
    70    37    38 1
    71    38    41 1
    72    38    39 1
    73    38    40 1
    74    39    70 1
    75    39    71 1
    76    39    72 1
    77    40    73 1
    78    40    74 1
    79    40    75 1
    80    41    76 1
@<TRIPOS>SUBSTRUCTURE
     1 MTK         1 TEMP              0 ****  ****    0 ROOT
