@<TRIPOS>MOLECULE
MTL
   26    25     1     0     0
SMALL
bcc


@<TRIPOS>ATOM
      1 O1         -0.0670   -0.0680    0.1910 oh        1 MTL     -0.616800
      2 C1          1.3390   -0.2500    0.1050 c3        1 MTL      0.095400
      3 C2          1.9140    0.2260    1.4410 c3        1 MTL      0.138100
      4 O2          1.3970   -0.5330    2.5250 oh        1 MTL     -0.621800
      5 C3          3.4440    0.0510    1.4480 c3        1 MTL      0.128100
      6 O3          3.9450    1.1230    0.6660 oh        1 MTL     -0.603800
      7 C4          4.0070    0.0370    2.8800 c3        1 MTL      0.128100
      8 O4          3.4910    1.0820    3.6890 oh        1 MTL     -0.603800
      9 C5          5.5340    0.2340    2.8920 c3        1 MTL      0.138100
     10 O5          6.0620   -0.4910    1.7890 oh        1 MTL     -0.621800
     11 C6          6.1160   -0.2670    4.2150 c3        1 MTL      0.095400
     12 O6          7.5190   -0.0640    4.1340 oh        1 MTL     -0.616800
     13 HO1        -0.4290   -0.2850   -0.6750 ho        1 MTL      0.411000
     14 H11         1.5700   -1.3360   -0.0600 h1        1 MTL      0.044700
     15 H12         1.7730    0.3640   -0.7270 h1        1 MTL      0.044700
     16 H2          1.6570    1.3120    1.5940 h1        1 MTL      0.071700
     17 HO2         0.4380   -0.5640    2.4060 ho        1 MTL      0.429000
     18 H3          3.7250   -0.9290    0.9670 h1        1 MTL      0.056700
     19 HO3         4.8980    0.9820    0.5820 ho        1 MTL      0.423000
     20 H4          3.7400   -0.9590    3.3360 h1        1 MTL      0.056700
     21 HO4         2.5400    0.9250    3.7690 ho        1 MTL      0.423000
     22 H5          5.7760    1.3270    2.7650 h1        1 MTL      0.071700
     23 HO5         7.0210   -0.5110    1.9070 ho        1 MTL      0.429000
     24 H61         5.6740    0.3190    5.0620 h1        1 MTL      0.044700
     25 H62         5.9010   -1.3600    4.3540 h1        1 MTL      0.044700
     26 HO6         7.8850   -0.2960    4.9940 ho        1 MTL      0.411000
@<TRIPOS>BOND
     1    1    2 1   
     2    1   13 1   
     3    2    3 1   
     4    2   14 1   
     5    2   15 1   
     6    3    4 1   
     7    3    5 1   
     8    3   16 1   
     9    4   17 1   
    10    5    6 1   
    11    5    7 1   
    12    5   18 1   
    13    6   19 1   
    14    7    8 1   
    15    7    9 1   
    16    7   20 1   
    17    8   21 1   
    18    9   10 1   
    19    9   11 1   
    20    9   22 1   
    21   10   23 1   
    22   11   12 1   
    23   11   24 1   
    24   11   25 1   
    25   12   26 1   
@<TRIPOS>SUBSTRUCTURE
     1 MTL         1 TEMP              0 ****  ****    0 ROOT
