@<TRIPOS>MOLECULE
molecule
   26    25     1     0     0
SMALL
bcc


@<TRIPOS>ATOM
      1 O1           0.0000     0.0000     0.0000 oh         1 MTL      -0.613300
      2 C1           1.4290     0.0000     0.0000 c3         1 MTL       0.115400
      3 C2           1.9400     0.0000     1.4410 c3         1 MTL       0.133100
      4 O2           1.4640    -1.1660     2.1150 oh         1 MTL      -0.606800
      5 C3           3.4700    -0.0000     1.4420 c3         1 MTL       0.146600
      6 O3           3.9460     1.1660     0.7680 oh         1 MTL      -0.591300
      7 C4           3.9800    -0.0000     2.8820 c3         1 MTL       0.146600
      8 O4           3.5040     1.1660     3.5560 oh         1 MTL      -0.591300
      9 C5           5.5100    -0.0000     2.8830 c3         1 MTL       0.133100
     10 O5           5.9850    -1.1660     2.2090 oh         1 MTL      -0.606800
     11 C6           6.0210    -0.0000     4.3240 c3         1 MTL       0.115400
     12 O6           7.4490    -0.0000     4.3240 oh         1 MTL      -0.613300
     13 HO1         -0.3140     0.0550    -0.8870 ho         1 MTL       0.405500
     14 H11          1.7890     0.8840    -0.5110 h1         1 MTL       0.030950
     15 H12          1.7890    -0.8840    -0.5110 h1         1 MTL       0.030950
     16 H2           1.5790     0.8840     1.9520 h1         1 MTL       0.066200
     17 HO2          0.5990    -1.0030     2.4530 ho         1 MTL       0.415500
     18 H3           3.8310    -0.8850     0.9310 h1         1 MTL       0.066200
     19 HO3          4.4130     0.9110    -0.0100 ho         1 MTL       0.400500
     20 H4           3.6180    -0.8850     3.3930 h1         1 MTL       0.066200
     21 HO4          3.1670     0.9240     4.4030 ho         1 MTL       0.400500
     22 H5           5.8700     0.8840     2.3720 h1         1 MTL       0.066200
     23 HO5          6.7240    -0.9380     1.6690 ho         1 MTL       0.415500
     24 H61          5.6600     0.8850     4.8350 h1         1 MTL       0.030950
     25 H62          5.6600    -0.8840     4.8350 h1         1 MTL       0.030950
     26 HO6          7.7640     0.1620     5.1980 ho         1 MTL       0.405500
@<TRIPOS>BOND
     1     1     2 1
     2     1    13 1
     3     2     3 1
     4     2    14 1
     5     2    15 1
     6     3     4 1
     7     3     5 1
     8     3    16 1
     9     4    17 1
    10     5     6 1
    11     5     7 1
    12     5    18 1
    13     6    19 1
    14     7     8 1
    15     7     9 1
    16     7    20 1
    17     8    21 1
    18     9    10 1
    19     9    11 1
    20     9    22 1
    21    10    23 1
    22    11    12 1
    23    11    24 1
    24    11    25 1
    25    12    26 1
@<TRIPOS>SUBSTRUCTURE
     1 MTL         1 TEMP              0 ****  ****    0 ROOT
