@<TRIPOS>MOLECULE
MTM
   40    42     1     0     0
SMALL
bcc


@<TRIPOS>ATOM
      1 CS           0.0000     0.0000     0.0000 c3         1 MTM       0.110000
      2 S5'          1.8140     0.0000     0.0000 ss         1 MTM      -0.373200
      3 C5'          2.1290     0.0000     1.7860 c3         1 MTM       0.070700
      4 C4'          3.6380    -0.0000     2.0380 c3         1 MTM       0.131500
      5 N4'          4.2380     1.2950     1.6260 n7         1 MTM      -0.570200
      6 C2'          5.3500     0.5600     3.6560 c3         1 MTM       0.148100
      7 O2'          6.3450    -0.4650     3.6920 oh         1 MTM      -0.540800
      8 C3'          3.9380    -0.0670     3.5570 c3         1 MTM       0.135100
      9 O3'          3.9520    -1.4190     4.0190 oh         1 MTM      -0.540800
     10 C1'          5.5040     1.4100     2.3810 c3         1 MTM       0.187800
     11 C9           5.7550     2.8500     2.7460 cc         1 MTM      -0.095300
     12 C8           4.8220     3.8210     2.8600 cd         1 MTM      -0.282300
     13 N7           5.4470     4.9900     3.2010 na         1 MTM       0.461900
     14 C5           6.7760     4.7600     3.2930 cd         1 MTM      -0.521600
     15 C6           7.9190     5.6960     3.6070 c3         1 MTM       0.271000
     16 N6           8.3350     6.4100     2.3940 nz         1 MTM      -0.018600
     17 N1           9.0220     4.8500     4.1030 nu         1 MTM      -0.509200
     18 C2           9.2360     3.6060     3.5630 c2         1 MTM       0.443100
     19 N3           8.2660     2.8940     3.0590 ne         1 MTM      -0.426100
     20 C4           7.0010     3.4300     3.0380 cc         1 MTM       0.104400
     21 HCS1        -0.3610    -0.8170     0.6130 h1         1 MTM       0.033033
     22 HCS2        -0.3610    -0.1230    -1.0140 h1         1 MTM       0.033033
     23 HCS3        -0.3610     0.9390     0.4010 h1         1 MTM       0.033033
     24 H5'1         1.6880     0.8850     2.2310 h1         1 MTM       0.035700
     25 H5'2         1.6880    -0.8840     2.2310 h1         1 MTM       0.035700
     26 H4'          4.1170    -0.8220     1.5200 h1         1 MTM       0.089700
     27 HN4          3.6260     2.0430     1.8840 hn         1 MTM       0.251800
     28 H2'          5.4180     1.1900     4.5350 h1         1 MTM       0.000700
     29 HO'2         6.7490    -0.4810     4.5440 ho         1 MTM       0.390000
     30 H3'          3.2210     0.5250     4.1120 h1         1 MTM       0.003700
     31 H3T          3.4510    -1.4840     4.8160 ho         1 MTM       0.387000
     32 H1'          6.3230     1.0290     1.7830 h1         1 MTM       0.083700
     33 H8           3.7570     3.6960     2.7060 h4         1 MTM       0.174000
     34 H7           4.9950     5.8710     3.3500 hn         1 MTM       0.114700
     35 H6           7.6200     6.3990     4.3740 hx         1 MTM       0.081700
     36 H61          9.2250     6.8410     2.5480 hn         1 MTM       0.234467
     37 H62          7.6580     7.1130     2.1720 hn         1 MTM       0.234467
     38 HN1          9.6160     5.1840     4.8350 hn         1 MTM       0.328800
     39 H2          10.2410     3.2030     3.5570 h5         1 MTM       0.032800
     40 H63          8.4200     5.7610     1.6370 hn         1 MTM       0.234467
@<TRIPOS>BOND
     1     1     2 1   
     2     1    21 1   
     3     1    22 1   
     4     1    23 1   
     5     2     3 1   
     6     3     4 1   
     7     3    24 1   
     8     3    25 1   
     9     4     5 1   
    10     4     8 1   
    11     4    26 1   
    12     5    10 1   
    13     5    27 1   
    14     6     7 1   
    15     6     8 1   
    16     6    10 1   
    17     6    28 1   
    18     7    29 1   
    19     8     9 1   
    20     8    30 1   
    21     9    31 1   
    22    10    11 1   
    23    10    32 1   
    24    11    12 2   
    25    11    20 1   
    26    12    13 1   
    27    12    33 1   
    28    13    14 1   
    29    13    34 1   
    30    14    15 1   
    31    14    20 2   
    32    15    16 1   
    33    15    17 1   
    34    15    35 1   
    35    16    36 1   
    36    16    37 1   
    37    16    40 1   
    38    17    18 1   
    39    17    38 1   
    40    18    19 2   
    41    18    39 1   
    42    19    20 1   
@<TRIPOS>SUBSTRUCTURE
     1 MTM         1 TEMP              0 ****  ****    0 ROOT
