@<TRIPOS>MOLECULE
MTO
    3     2     1     0     0
SMALL
bcc


@<TRIPOS>ATOM
      1 O          -0.0200   -0.0000   -0.0270 oh        1 MTO     -0.785000
      2 H1          0.9410    0.0000    0.0220 ho        1 MTO      0.392000
      3 H2         -0.2920    0.0000    0.8950 ho        1 MTO      0.392000
@<TRIPOS>BOND
     1    1    2 1   
     2    1    3 1   
@<TRIPOS>SUBSTRUCTURE
     1 MTO         1 TEMP              0 ****  ****    0 ROOT
