@<TRIPOS>MOLECULE
molecule
   34    36     1     0     0
SMALL
bcc


@<TRIPOS>ATOM
      1 O5'          0.0000     0.0000     0.0000 oh         1 MTP      -0.594800
      2 C5'          1.4280     0.0000     0.0000 c3         1 MTP       0.147400
      3 C4'          1.9390     0.0000     1.4430 c3         1 MTP       0.132100
      4 O4'          1.5960    -1.2400     2.0980 os         1 MTP      -0.399600
      5 C1'          2.5070    -1.3460     3.2130 c3         1 MTP       0.252800
      6 N9           2.6080    -2.7380     3.6590 na         1 MTP      -0.255000
      7 C8           2.3170    -3.8450     2.9190 cc         1 MTP       0.447700
      8 N7           2.5180    -4.9180     3.6270 nd         1 MTP      -0.580100
      9 C5           2.9550    -4.5700     4.8610 ca         1 MTP      -0.139200
     10 C6           3.3160    -5.2800     6.0190 ca         1 MTP       0.622600
     11 S6           3.2620    -7.0410     6.0510 ss         1 MTP      -0.256400
     12 CS           3.8250    -7.3420     7.7440 c3         1 MTP      -0.027000
     13 N1           3.7030    -4.5920     7.0900 nb         1 MTP      -0.775000
     14 C2           3.7460    -3.2720     7.0740 ca         1 MTP       0.704900
     15 N3           3.4130    -2.5660     6.0140 nb         1 MTP      -0.747000
     16 C4           3.0130    -3.1660     4.8980 ca         1 MTP       0.455800
     17 C2'          3.8660    -0.8570     2.6650 c3         1 MTP       0.089100
     18 O2'          4.5720    -0.1070     3.6550 oh         1 MTP      -0.559800
     19 C3'          3.4830     0.0480     1.4700 c3         1 MTP       0.090100
     20 O3'          3.9380     1.3850     1.6880 oh         1 MTP      -0.568800
     21 H5'         -0.3140     0.0720    -0.8860 ho         1 MTP       0.406000
     22 H5'1         1.7890     0.8850    -0.5110 h1         1 MTP       0.031200
     23 H5'2         1.7890    -0.8840    -0.5110 h1         1 MTP       0.031200
     24 H4'          1.5290     0.8390     1.9920 h1         1 MTP       0.092700
     25 H1'          2.1800    -0.7080     4.0250 h2         1 MTP       0.113700
     26 H8           1.9700    -3.8340     1.8930 h5         1 MTP       0.091800
     27 HS1          3.8500    -8.4090     7.9320 h1         1 MTP       0.070700
     28 HS2          3.1440    -6.8680     8.4410 h1         1 MTP       0.070700
     29 HS3          4.8180    -6.9290     7.8730 h1         1 MTP       0.070700
     30 H2           4.0670    -2.7510     7.9680 h5         1 MTP       0.064100
     31 H2'          4.4580    -1.6980     2.3250 h1         1 MTP       0.056700
     32 H1           5.4890    -0.3230     3.6180 ho         1 MTP       0.409000
     33 H3'          3.8890    -0.3520     0.5490 h1         1 MTP       0.047700
     34 H3           4.5700     1.6130     1.0270 ho         1 MTP       0.404000
@<TRIPOS>BOND
     1     1     2 1
     2     1    21 1
     3     2     3 1
     4     2    22 1
     5     2    23 1
     6     3     4 1
     7     3    19 1
     8     3    24 1
     9     4     5 1
    10     5     6 1
    11     5    17 1
    12     5    25 1
    13     6     7 1
    14     6    16 1
    15     7     8 2
    16     7    26 1
    17     8     9 1
    18     9    10 ar
    19     9    16 ar
    20    10    11 1
    21    10    13 ar
    22    11    12 1
    23    12    27 1
    24    12    28 1
    25    12    29 1
    26    13    14 ar
    27    14    15 ar
    28    14    30 1
    29    15    16 ar
    30    17    18 1
    31    17    19 1
    32    17    31 1
    33    18    32 1
    34    19    20 1
    35    19    33 1
    36    20    34 1
@<TRIPOS>SUBSTRUCTURE
     1 MTP         1 TEMP              0 ****  ****    0 ROOT
