@<TRIPOS>MOLECULE
MTP
   34    36     1     0     0
SMALL
bcc


@<TRIPOS>ATOM
      1 O5'        -0.0990   -1.3570    1.3670 oh        1 MTP     -0.586800
      2 C5'         1.2350   -1.2630    0.9210 c3        1 MTP      0.120400
      3 C4'         1.9750   -0.1340    1.6380 c3        1 MTP      0.083100
      4 O4'         2.0370   -0.4170    3.0430 os        1 MTP     -0.416600
      5 C1'         3.3670   -0.7780    3.4480 c3        1 MTP      0.217800
      6 N9          3.4820   -2.1930    3.6930 na        1 MTP     -0.285000
      7 C8          3.6290   -3.2400    2.7450 cc        1 MTP      0.408700
      8 N7          3.5610   -4.4690    3.2730 nd        1 MTP     -0.518100
      9 C5          3.3300   -4.2680    4.6440 ca        1 MTP     -0.165200
     10 C6          3.1640   -5.1480    5.7450 ca        1 MTP      0.564600
     11 S6          3.2430   -6.8050    5.4460 ss        1 MTP     -0.153400
     12 CS          3.0040   -7.5880    6.9900 c3        1 MTP     -0.082000
     13 N1          2.9510   -4.6340    6.9800 nb        1 MTP     -0.743000
     14 C2          2.9090   -3.2780    7.1180 ca        1 MTP      0.665900
     15 N3          3.0510   -2.3180    6.1730 nb        1 MTP     -0.700000
     16 C4          3.2610   -2.8310    4.9280 ca        1 MTP      0.451800
     17 C2'         4.3310   -0.2550    2.3350 c3        1 MTP      0.079100
     18 O2'         5.0040    0.9020    2.7660 oh        1 MTP     -0.576800
     19 C3'         3.4140    0.0440    1.1260 c3        1 MTP      0.082100
     20 O3'         3.5510    1.3910    0.7170 oh        1 MTP     -0.585800
     21 H5'        -0.0720   -1.4690    2.3270 ho        1 MTP      0.417000
     22 H5'1        1.7680   -2.2390    1.0810 h1        1 MTP      0.051700
     23 H5'2        1.1620   -1.0390   -0.1770 h1        1 MTP      0.051700
     24 H4'         1.3900    0.8260    1.5580 h1        1 MTP      0.113700
     25 H1'         3.5320   -0.2360    4.4290 h2        1 MTP      0.133700
     26 H8          3.8060   -3.0220    1.6850 h5        1 MTP      0.069800
     27 HS1         2.0140   -7.3530    7.4400 h1        1 MTP      0.078033
     28 HS2         3.7920   -7.3220    7.7310 h1        1 MTP      0.078033
     29 HS3         3.0580   -8.6810    6.7750 h1        1 MTP      0.078033
     30 H2          2.7310   -2.9100    8.1520 h5        1 MTP      0.057100
     31 H2'         5.1470   -0.9830    2.0850 h1        1 MTP      0.105700
     32 H1          4.3410    1.5940    2.9120 ho        1 MTP      0.424000
     33 H3'         3.6380   -0.6440    0.2690 h1        1 MTP      0.061700
     34 H3          4.4850    1.5280    0.5040 ho        1 MTP      0.421000
@<TRIPOS>BOND
     1    1    2 1   
     2    1   21 1   
     3    2    3 1   
     4    2   22 1   
     5    2   23 1   
     6    3    4 1   
     7    3   19 1   
     8    3   24 1   
     9    4    5 1   
    10    5    6 1   
    11    5   17 1   
    12    5   25 1   
    13    6    7 1   
    14    6   16 1   
    15    7    8 2   
    16    7   26 1   
    17    8    9 1   
    18    9   10 ar  
    19    9   16 ar  
    20   10   11 1   
    21   10   13 ar  
    22   11   12 1   
    23   12   27 1   
    24   12   28 1   
    25   12   29 1   
    26   13   14 ar  
    27   14   15 ar  
    28   14   30 1   
    29   15   16 ar  
    30   17   18 1   
    31   17   19 1   
    32   17   31 1   
    33   18   32 1   
    34   19   20 1   
    35   19   33 1   
    36   20   34 1   
@<TRIPOS>SUBSTRUCTURE
     1 MTP         1 TEMP              0 ****  ****    0 ROOT
