@<TRIPOS>MOLECULE
MTS
   33    34     1     0     0
SMALL
bcc


@<TRIPOS>ATOM
      1 S1           0.0000     0.0000     0.0000 ss         1 MTS      -0.071800
      2 C2           1.7870     0.0000     0.0000 cc         1 MTS      -0.155600
      3 C3           2.0640     0.0000     1.3220 cd         1 MTS       0.062000
      4 C4           1.0270    -0.0040     2.2630 cd         1 MTS      -0.080300
      5 C5           1.2940    -0.0270     3.7600 c3         1 MTS       0.152800
      6 C6           0.1220     0.5290     4.5520 c3         1 MTS      -0.039400
      7 C7          -1.1350    -0.3250     4.3410 c3         1 MTS       0.007100
      8 S8          -1.7370     0.0130     2.6530 sy         1 MTS       0.897300
      9 C9          -0.2310     0.0020     1.7540 cc         1 MTS       0.100400
     10 S10          2.8970     0.0010    -1.3680 sy         1 MTS       0.991200
     11 O11          2.1610     0.5290    -2.4630 o          1 MTS      -0.483800
     12 O12          4.1210     0.5250    -0.8720 o          1 MTS      -0.483800
     13 N13          3.2090    -1.5770    -1.7540 nz         1 MTS      -0.130500
     14 N14          2.4890     0.7770     4.0460 n7         1 MTS      -0.582200
     15 C15         -0.7870    -1.8070     4.4850 c3         1 MTS       0.031900
     16 O16         -2.4460    -1.0920     2.1120 o          1 MTS      -0.541800
     17 O17         -2.1920     1.3510     2.5110 o          1 MTS      -0.541800
     18 C18          3.1080     0.2040     5.2480 c3         1 MTS       0.169100
     19 H3           3.0940     0.0000     1.6560 ha         1 MTS       0.139000
     20 H5           1.4710    -1.0500     4.0690 h1         1 MTS       0.063700
     21 H61         -0.0780     1.5420     4.2250 hc         1 MTS       0.047200
     22 H62          0.3750     0.5330     5.6050 hc         1 MTS       0.047200
     23 H7          -1.8930    -0.0470     5.0630 h1         1 MTS       0.095700
     24 HN31         3.8360    -1.6130    -2.5330 hn         1 MTS       0.315133
     25 HN32         2.3530    -2.0380    -1.9930 hn         1 MTS       0.315133
     26 HN4          2.2190     1.7230     4.2280 hn         1 MTS       0.274800
     27 H151        -0.2810    -2.1480     3.5890 hc         1 MTS       0.018700
     28 H152        -1.6960    -2.3800     4.6260 hc         1 MTS       0.018700
     29 H153        -0.1370    -1.9440     5.3410 hc         1 MTS       0.018700
     30 H181         2.4630     0.3740     6.1020 h1         1 MTS       0.009700
     31 H182         4.0670     0.6770     5.4210 h1         1 MTS       0.009700
     32 H183         3.2500    -0.8610     5.1090 h1         1 MTS       0.009700
     33 H133         3.6260    -2.0370    -0.9690 hn         1 MTS       0.315133
@<TRIPOS>BOND
     1     1     2 1   
     2     1     9 1   
     3     2     3 2   
     4     2    10 1   
     5     3     4 1   
     6     3    19 1   
     7     4     5 1   
     8     4     9 2   
     9     5     6 1   
    10     5    14 1   
    11     5    20 1   
    12     6     7 1   
    13     6    21 1   
    14     6    22 1   
    15     7     8 1   
    16     7    15 1   
    17     7    23 1   
    18     8     9 1   
    19     8    16 2   
    20     8    17 2   
    21    10    11 2   
    22    10    12 2   
    23    10    13 1   
    24    13    24 1   
    25    13    25 1   
    26    13    33 1   
    27    14    18 1   
    28    14    26 1   
    29    15    27 1   
    30    15    28 1   
    31    15    29 1   
    32    18    30 1   
    33    18    31 1   
    34    18    32 1   
@<TRIPOS>SUBSTRUCTURE
     1 MTS         1 TEMP              0 ****  ****    0 ROOT
