@<TRIPOS>MOLECULE
MTW
   43    46     1     0     0
SMALL
bcc


@<TRIPOS>ATOM
      1 C            0.0000     0.0000     0.0000 cc         1 MTW       0.304400
      2 N1           1.3090     0.0000     0.0000 nd         1 MTW      -0.700000
      3 C1           1.7600     0.0000     1.2550 cd         1 MTW       0.606900
      4 N2           0.7410    -0.0010     2.0720 nc         1 MTW      -0.691800
      5 N           -0.4170    -0.0020     1.2770 na         1 MTW       0.336600
      6 C2          -1.8050    -0.0030     1.7470 c3         1 MTW       0.066600
      7 C3          -2.0180    -1.1660     2.6800 ca         1 MTW      -0.140300
      8 C4          -1.8030    -1.0130     4.0320 ca         1 MTW      -0.010000
      9 C17         -2.4370    -2.3870     2.1760 ca         1 MTW      -0.057000
     10 C18         -2.6360    -3.4630     3.0240 ca         1 MTW      -0.107000
     11 C6          -2.4190    -3.3260     4.3800 ca         1 MTW      -0.067000
     12 C5          -2.0010    -2.0960     4.8970 ca         1 MTW      -0.167900
     13 C7          -1.7730    -1.9400     6.3410 ce         1 MTW       0.467900
     14 N3          -1.3850    -0.7870     6.8070 nf         1 MTW      -0.626000
     15 C8          -1.9980    -3.1120     7.2550 c3         1 MTW      -0.189000
     16 C9          -2.0920    -2.6560     8.6840 c2         1 MTW       0.416200
     17 N4          -1.6900    -1.4850     9.0430 nf         1 MTW      -0.544000
     18 C10         -1.1730    -0.6100     8.1350 cf         1 MTW       0.678300
     19 N5          -0.4600     0.4170     8.5530 ne         1 MTW      -0.399100
     20 C11          0.0620     1.2970     7.6490 ca         1 MTW       0.080400
     21 C14         -0.0350     2.6740     7.8750 ca         1 MTW       0.000000
     22 C12          0.7010     0.8270     6.4980 ca         1 MTW      -0.054000
     23 C13          1.2250     1.7220     5.5900 ca         1 MTW      -0.110000
     24 C16          1.1200     3.0840     5.8170 ca         1 MTW      -0.024000
     25 C15          0.4950     3.5570     6.9570 ca         1 MTW      -0.446200
     26 N6           0.3940     5.0150     7.1920 no         1 MTW       1.049200
     27 O2          -0.1570     5.4330     8.1950 o          1 MTW      -0.451500
     28 O1           0.8600     5.7960     6.3830 o          1 MTW      -0.451500
     29 H           -0.6360     0.0000    -0.8770 h5         1 MTW       0.024100
     30 H1           2.8030     0.0000     1.5480 h5         1 MTW       0.023100
     31 H2C1        -2.4730    -0.0920     0.8990 h1         1 MTW       0.037700
     32 H2C2        -2.0090     0.9230     2.2720 h1         1 MTW       0.037700
     33 H4          -1.4790    -0.0570     4.4250 ha         1 MTW       0.136000
     34 H17         -2.6100    -2.5000     1.1130 ha         1 MTW       0.105000
     35 H18         -2.9620    -4.4140     2.6220 ha         1 MTW       0.111000
     36 H6          -2.5750    -4.1690     5.0420 ha         1 MTW       0.109000
     37 H8C1        -1.0980    -3.7120     7.1940 hc         1 MTW       0.065700
     38 H8C2        -2.9770    -3.5010     7.0030 hc         1 MTW       0.065700
     39 H9          -2.3770    -3.3610     9.4540 h4         1 MTW      -0.002200
     40 H14         -0.5240     3.0460     8.7670 ha         1 MTW       0.143000
     41 H12          0.7830    -0.2380     6.3200 ha         1 MTW       0.120000
     42 H13          1.7180     1.3590     4.6970 ha         1 MTW       0.125000
     43 H16          1.5340     3.7830     5.1000 ha         1 MTW       0.131000
@<TRIPOS>BOND
     1     1     2 2   
     2     1     5 1   
     3     1    29 1   
     4     2     3 1   
     5     3     4 2   
     6     3    30 1   
     7     4     5 1   
     8     5     6 1   
     9     6     7 1   
    10     6    31 1   
    11     6    32 1   
    12     7     8 ar  
    13     7     9 ar  
    14     8    12 ar  
    15     8    33 1   
    16     9    10 ar  
    17     9    34 1   
    18    10    11 ar  
    19    10    35 1   
    20    11    12 ar  
    21    11    36 1   
    22    12    13 1   
    23    13    14 2   
    24    13    15 1   
    25    14    18 1   
    26    15    16 1   
    27    15    37 1   
    28    15    38 1   
    29    16    17 2   
    30    16    39 1   
    31    17    18 1   
    32    18    19 2   
    33    19    20 1   
    34    20    21 ar  
    35    20    22 ar  
    36    21    25 ar  
    37    21    40 1   
    38    22    23 ar  
    39    22    41 1   
    40    23    24 ar  
    41    23    42 1   
    42    24    25 ar  
    43    24    43 1   
    44    25    26 1   
    45    26    27 1   
    46    26    28 1   
@<TRIPOS>SUBSTRUCTURE
     1 MTW         1 TEMP              0 ****  ****    0 ROOT
