@<TRIPOS>MOLECULE
molecule
   53    55     1     0     0
SMALL
bcc


@<TRIPOS>ATOM
      1 N1           0.0000     0.0000     0.0000 nb         1 MTX      -0.714000
      2 C2           1.3180     0.0000     0.0000 ca         1 MTX       0.946900
      3 NA2          1.9720     0.0030    -1.2180 nv         1 MTX      -1.059500
      4 N3           2.0520     0.0000     1.1090 nb         1 MTX      -0.785000
      5 C4           1.4870    -0.0040     2.3070 ca         1 MTX       0.705900
      6 NA4          2.2490    -0.0040     3.4540 nv         1 MTX      -1.068500
      7 C4A          0.0240    -0.0040     2.3710 ca         1 MTX       0.097000
      8 N5          -0.6340    -0.0020     3.5250 nb         1 MTX      -0.622000
      9 C6          -1.9490    -0.0070     3.5220 ca         1 MTX       0.273300
     10 C7          -2.6570    -0.0060     2.3220 ca         1 MTX       0.364900
     11 N8          -2.0260    -0.0030     1.1670 nb         1 MTX      -0.621000
     12 C8A         -0.6910    -0.0020     1.1470 ca         1 MTX       0.597000
     13 C9          -2.6980    -0.0100     4.8310 c3         1 MTX       0.196500
     14 N10         -2.9410    -1.3920     5.2510 nh         1 MTX      -0.737000
     15 CM          -1.9610    -2.0840     6.0920 c3         1 MTX       0.237100
     16 C11         -6.4120    -3.3510     4.0580 ca         1 MTX      -0.147600
     17 C12         -5.4760    -4.0110     4.8610 ca         1 MTX      -0.046000
     18 C13         -4.3300    -3.3600     5.2530 ca         1 MTX      -0.225000
     19 C14         -4.1010    -2.0460     4.8530 ca         1 MTX       0.182600
     20 C15         -5.0330    -1.3860     4.0580 ca         1 MTX      -0.225000
     21 C16         -6.1780    -2.0340     3.6570 ca         1 MTX      -0.046000
     22 O           -7.8440    -5.1940     3.9840 o          1 MTX      -0.647100
     23 N           -8.5440    -3.4090     2.8620 ns         1 MTX      -0.503900
     24 CA          -9.7660    -4.0990     2.4410 c3         1 MTX      -0.000300
     25 CT          -9.5180    -4.8070     1.1350 c          1 MTX       0.893600
     26 O1         -10.1220    -5.8210     0.8730 o          1 MTX      -0.860800
     27 O2          -8.6280    -4.3110     0.2610 o          1 MTX      -0.860800
     28 CB         -10.8920    -3.0810     2.2650 c3         1 MTX      -0.063400
     29 CG         -11.1430    -2.3620     3.5910 c3         1 MTX      -0.185400
     30 CD         -12.2520    -1.3580     3.4180 c          1 MTX       0.890600
     31 OE1        -12.7880    -1.2300     2.3430 o          1 MTX      -0.873800
     32 OE2        -12.6460    -0.6050     4.4560 o          1 MTX      -0.873800
     33 HN21         2.2660    -0.8610    -1.6300 hn         1 MTX       0.442300
     34 HN22         2.1490     0.8680    -1.6890 hn         1 MTX       0.442300
     35 HN41         2.5610     0.8620     3.8470 hn         1 MTX       0.442800
     36 HN42         2.5350    -0.8710     3.8650 hn         1 MTX       0.442800
     37 H7          -3.7410    -0.0100     2.3390 h4         1 MTX       0.062100
     38 H91         -2.1100     0.4990     5.5840 h1         1 MTX       0.065700
     39 H92         -3.6450     0.5010     4.7060 h1         1 MTX       0.065700
     40 HM1         -2.4370    -2.4090     7.0090 h1         1 MTX       0.031033
     41 HM2         -1.1470    -1.4090     6.3280 h1         1 MTX       0.031033
     42 HM3         -1.5740    -2.9450     5.5610 h1         1 MTX       0.031033
     43 H12         -5.6540    -5.0330     5.1730 ha         1 MTX       0.153000
     44 H13         -3.6050    -3.8710     5.8750 ha         1 MTX       0.113500
     45 H15         -4.8520    -0.3640     3.7470 ha         1 MTX       0.113500
     46 H16         -6.9030    -1.5190     3.0370 ha         1 MTX       0.153000
     47 HN          -8.3620    -2.4780     2.5460 hn         1 MTX       0.306500
     48 HA         -10.0490    -4.8240     3.1960 h1         1 MTX       0.065700
     49 HB1        -11.7960    -3.5910     1.9550 hc         1 MTX       0.057700
     50 HB2        -10.6100    -2.3570     1.5100 hc         1 MTX       0.057700
     51 HG1        -10.2400    -1.8520     3.9020 hc         1 MTX       0.022200
     52 HG2        -11.4270    -3.0860     4.3460 hc         1 MTX       0.022200
     53 C           -7.6430    -4.0470     3.6350 c          1 MTX       0.658700
@<TRIPOS>BOND
     1     1     2 ar
     2     1    12 ar
     3     2     3 1
     4     2     4 ar
     5     3    33 1
     6     3    34 1
     7     4     5 ar
     8     5     6 1
     9     5     7 ar
    10     6    35 1
    11     6    36 1
    12     7     8 ar
    13     7    12 ar
    14     8     9 ar
    15     9    10 ar
    16     9    13 1
    17    10    11 ar
    18    10    37 1
    19    11    12 ar
    20    13    14 1
    21    13    38 1
    22    13    39 1
    23    14    15 1
    24    14    19 1
    25    15    40 1
    26    15    41 1
    27    15    42 1
    28    16    17 ar
    29    16    21 ar
    30    16    53 1
    31    17    18 ar
    32    17    43 1
    33    18    19 ar
    34    18    44 1
    35    19    20 ar
    36    20    21 ar
    37    20    45 1
    38    21    46 1
    39    53    22 2
    40    53    23 1
    41    23    24 1
    42    23    47 1
    43    24    25 1
    44    24    28 1
    45    24    48 1
    46    25    26 1
    47    25    27 1
    48    28    29 1
    49    28    49 1
    50    28    50 1
    51    29    30 1
    52    29    51 1
    53    29    52 1
    54    30    31 1
    55    30    32 1
@<TRIPOS>SUBSTRUCTURE
     1 MTX         1 TEMP              0 ****  ****    0 ROOT
