@<TRIPOS>MOLECULE
MTZ
   46    49     1     0     0
SMALL
bcc


@<TRIPOS>ATOM
      1 C14          0.0000     0.0000     0.0000 c3         1 MTZ       0.083800
      2 C15          1.5290     0.0000     0.0000 c3         1 MTZ       0.198900
      3 O            2.0110     0.0000     1.3430 os         1 MTZ      -0.395600
      4 C16          1.5740    -1.2180     1.9480 c3         1 MTZ       0.198900
      5 C17          0.0450    -1.2480     1.9970 c3         1 MTZ       0.083800
      6 N5          -0.4910    -1.2320     0.6300 nh         1 MTZ      -0.352000
      7 C11         -1.8770    -1.1000     0.7450 ca         1 MTZ       0.005600
      8 C12         -2.6660    -1.0550    -0.3990 ca         1 MTZ      -0.141500
      9 C13         -4.0340    -0.9240    -0.2910 ca         1 MTZ      -0.066000
     10 C10         -2.4640    -1.0140     2.0030 ca         1 MTZ      -0.141500
     11 C9          -3.8300    -0.8780     2.1210 ca         1 MTZ      -0.066000
     12 C8          -4.6280    -0.8380     0.9720 ca         1 MTZ       0.073400
     13 N4          -5.9820    -0.7090     1.0840 ne         1 MTZ      -0.398100
     14 C5          -6.6440    -1.4380     1.9630 cf         1 MTZ       0.664300
     15 N2          -7.9730    -1.2760     2.0350 nf         1 MTZ      -0.575000
     16 N3          -5.9330    -2.3010     2.7330 nf         1 MTZ      -0.612000
     17 C6          -6.4950    -3.0560     3.6220 c2         1 MTZ       0.435200
     18 C7          -7.9980    -2.9480     3.7910 c3         1 MTZ      -0.198000
     19 C4          -8.7100    -1.9620     2.8850 ce         1 MTZ       0.502900
     20 C3         -10.1060    -1.7830     2.9520 cc         1 MTZ      -0.173300
     21 S          -11.3100    -2.5830     4.0040 ss         1 MTZ      -0.395300
     22 C1         -10.9310    -0.9290     2.2220 cd         1 MTZ       0.421600
     23 C2         -10.3660    -0.0110     1.1700 c3         1 MTZ      -0.034400
     24 N1         -12.2110    -0.9560     2.4800 nd         1 MTZ      -0.642000
     25 C          -12.7170    -1.7610     3.4040 cc         1 MTZ       0.590300
     26 N          -14.0310    -1.9090     3.7910 nv         1 MTZ      -0.473500
     27 H141        -0.3590     0.0500    -1.0210 h1         1 MTZ       0.031200
     28 H142        -0.3600     0.8570     0.5570 h1         1 MTZ       0.031200
     29 H151         1.8880    -0.8860    -0.5100 h1         1 MTZ       0.014700
     30 H152         1.8880     0.8860    -0.5100 h1         1 MTZ       0.014700
     31 H161         1.9310    -2.0570     1.3630 h1         1 MTZ       0.014700
     32 H162         1.9670    -1.2800     2.9550 h1         1 MTZ       0.014700
     33 H171        -0.3140    -0.3790     2.5350 h1         1 MTZ       0.031200
     34 H172        -0.2800    -2.1510     2.5010 h1         1 MTZ       0.031200
     35 H12         -2.2050    -1.1220    -1.3770 ha         1 MTZ       0.120500
     36 H13         -4.6480    -0.8910    -1.1830 ha         1 MTZ       0.114500
     37 H10         -1.8450    -1.0460     2.8920 ha         1 MTZ       0.120500
     38 H9          -4.2870    -0.8110     3.1010 ha         1 MTZ       0.114500
     39 H6          -5.9660    -3.9160     4.0160 h4         1 MTZ       0.000800
     40 H7C1        -8.3810    -3.9180     3.5000 hc         1 MTZ       0.059700
     41 H7C2        -8.1370    -2.5540     4.7910 hc         1 MTZ       0.059700
     42 H2C1        -9.6490     0.6620     1.6240 hc         1 MTZ       0.026367
     43 H2C2        -9.8760    -0.5980     0.4040 hc         1 MTZ       0.026367
     44 H2C3       -11.1690     0.5650     0.7250 hc         1 MTZ       0.026367
     45 HN1        -14.2780    -1.8420     4.7590 hn         1 MTZ       0.275800
     46 HN2        -14.7370    -2.0960     3.1070 hn         1 MTZ       0.275800
@<TRIPOS>BOND
     1     1     2 1   
     2     1     6 1   
     3     1    27 1   
     4     1    28 1   
     5     2     3 1   
     6     2    29 1   
     7     2    30 1   
     8     3     4 1   
     9     4     5 1   
    10     4    31 1   
    11     4    32 1   
    12     5     6 1   
    13     5    33 1   
    14     5    34 1   
    15     6     7 1   
    16     7     8 ar  
    17     7    10 ar  
    18     8     9 ar  
    19     8    35 1   
    20     9    12 ar  
    21     9    36 1   
    22    10    11 ar  
    23    10    37 1   
    24    11    12 ar  
    25    11    38 1   
    26    12    13 1   
    27    13    14 2   
    28    14    15 1   
    29    14    16 1   
    30    15    19 2   
    31    16    17 2   
    32    17    18 1   
    33    17    39 1   
    34    18    19 1   
    35    18    40 1   
    36    18    41 1   
    37    19    20 1   
    38    20    21 1   
    39    20    22 2   
    40    21    25 1   
    41    22    23 1   
    42    22    24 1   
    43    23    42 1   
    44    23    43 1   
    45    23    44 1   
    46    24    25 2   
    47    25    26 1   
    48    26    45 1   
    49    26    46 1   
@<TRIPOS>SUBSTRUCTURE
     1 MTZ         1 TEMP              0 ****  ****    0 ROOT
