@<TRIPOS>MOLECULE
MU2
   66    66     1     0     0
SMALL
bcc


@<TRIPOS>ATOM
      1 C1           0.0000     0.0000     0.0000 c3         1 MU2       0.375900
      2 O1          -0.4700    -1.1580     0.6940 oh         1 MU2      -0.615800
      3 C2           1.5300     0.0000     0.0000 c3         1 MU2      -0.039300
      4 N2           2.0210    -1.1920    -0.6950 ns         1 MU2      -0.193900
      5 C7           2.1870    -1.1720    -2.0320 c          1 MU2       0.575100
      6 O7           1.9300    -0.1670    -2.6610 o          1 MU2      -0.653100
      7 C8           2.6920    -2.3990    -2.7480 c3         1 MU2      -0.064100
      8 C3           2.0310     0.0000     1.4490 c3         1 MU2       0.131100
      9 O3           3.4510     0.1570     1.4670 os         1 MU2      -0.341600
     10 C4           1.3740     1.1650     2.1980 c3         1 MU2       0.159100
     11 O4           1.7110     1.0920     3.5850 oh         1 MU2      -0.581800
     12 C5          -0.1440     1.0730     2.0320 c3         1 MU2       0.135100
     13 O5          -0.4860     1.1720     0.6510 os         1 MU2      -0.379600
     14 C6          -0.8110     2.2140     2.8030 c3         1 MU2       0.223400
     15 O6          -2.2300     2.0620     2.7460 oh         1 MU2      -0.581800
     16 C18          4.0060    -1.1330     1.7300 c3         1 MU2       0.094100
     17 C20          4.1410    -1.3330     3.2410 c3         1 MU2      -0.027100
     18 C19          5.3650    -1.2360     1.0860 c          1 MU2       0.558100
     19 O18          5.8520    -0.2680     0.5420 o          1 MU2      -0.627100
     20 N4           6.0380    -2.4030     1.1160 ns         1 MU2      -0.176900
     21 C21          7.3590    -2.5020     0.4910 c3         1 MU2      -0.057300
     22 C23          8.4280    -2.0300     1.4780 c3         1 MU2      -0.007100
     23 C22          7.6270    -3.9350     0.1080 c          1 MU2       0.569100
     24 O19          6.7960    -4.7900     0.3360 o          1 MU2      -0.645100
     25 N5           8.7900    -4.2690    -0.4870 ns         1 MU2      -0.155900
     26 C24          9.0500    -5.6610    -0.8590 c3         1 MU2      -0.101300
     27 C25         10.5600    -5.9000    -0.9160 c3         1 MU2      -0.011400
     28 C26         11.1560    -5.7370     0.4830 c3         1 MU2      -0.101400
     29 C27         12.6440    -5.9720     0.4260 c          1 MU2       0.298100
     30 N20         13.3840    -5.8800     1.5500 nz         1 MU2       0.184600
     31 O21         13.1740    -6.2430    -0.6290 o          1 MU2      -0.383100
     32 C28          8.4450    -5.9420    -2.2100 c          1 MU2       0.968600
     33 O22          8.5600    -7.1630    -2.7560 o          1 MU2      -0.857800
     34 O23          7.8570    -5.0690    -2.8020 o          1 MU2      -0.857800
     35 H1          -0.3580    -0.0170    -1.0220 h2         1 MU2       0.037700
     36 HA          -1.1920    -1.5360     0.2210 ho         1 MU2       0.405000
     37 H2           1.8890     0.8900    -0.5030 h1         1 MU2       0.088700
     38 HB           2.1940    -2.0340    -0.1820 hn         1 MU2       0.180500
     39 H8C1         3.7360    -2.2630    -3.0040 hc         1 MU2       0.027700
     40 H8C2         2.1150    -2.5530    -3.6520 hc         1 MU2       0.027700
     41 H8C3         2.5880    -3.2630    -2.1020 hc         1 MU2       0.027700
     42 H3           1.7580    -0.9340     1.9250 h1         1 MU2       0.043700
     43 H4           1.7250     2.1020     1.7840 h1         1 MU2       0.024700
     44 HC           2.1140     1.9010     3.8540 ho         1 MU2       0.395000
     45 H5          -0.4890     0.1210     2.4190 h1         1 MU2       0.056700
     46 H6C1        -0.4860     2.1900     3.8370 h1         1 MU2      -0.006800
     47 H6C2        -0.5320     3.1620     2.3590 h1         1 MU2      -0.006800
     48 H6          -2.6370     2.6880     3.3220 ho         1 MU2       0.385000
     49 H18          3.3550    -1.8960     1.3210 h1         1 MU2       0.024700
     50 H201         5.0100    -1.9450     3.4490 hc         1 MU2       0.015700
     51 H202         3.2530    -1.8250     3.6200 hc         1 MU2       0.015700
     52 H203         4.2530    -0.3700     3.7250 hc         1 MU2       0.015700
     53 HD           5.6270    -3.2070     1.5470 hn         1 MU2       0.196500
     54 H21          7.3860    -1.8810    -0.3960 h1         1 MU2       0.078700
     55 H231         8.8200    -2.8810     2.0210 hc         1 MU2       0.003700
     56 H232         9.2310    -1.5460     0.9360 hc         1 MU2       0.003700
     57 H233         7.9890    -1.3260     2.1760 hc         1 MU2       0.003700
     58 HE           9.4610    -3.5590    -0.7050 hn         1 MU2       0.155500
     59 H24          8.6090    -6.3210    -0.1210 h1         1 MU2       0.056700
     60 H251        10.7530    -6.9040    -1.2750 hc         1 MU2       0.053200
     61 H252        11.0140    -5.1820    -1.5890 hc         1 MU2       0.053200
     62 H261        10.7020    -6.4550     1.1550 hc         1 MU2       0.052200
     63 H262        10.9630    -4.7330     0.8430 hc         1 MU2       0.052200
     64 HA1         14.3350    -6.1120     1.3420 hn         1 MU2       0.240800
     65 HB2         13.0270    -6.5150     2.2360 hn         1 MU2       0.240800
     66 H204        13.3380    -4.9460     1.9040 hn         1 MU2       0.240800
@<TRIPOS>BOND
     1     1     2 1   
     2     1     3 1   
     3     1    13 1   
     4     1    35 1   
     5     2    36 1   
     6     3     4 1   
     7     3     8 1   
     8     3    37 1   
     9     4     5 1   
    10     4    38 1   
    11     5     6 2   
    12     5     7 1   
    13     7    39 1   
    14     7    40 1   
    15     7    41 1   
    16     8     9 1   
    17     8    10 1   
    18     8    42 1   
    19     9    16 1   
    20    10    11 1   
    21    10    12 1   
    22    10    43 1   
    23    11    44 1   
    24    12    13 1   
    25    12    14 1   
    26    12    45 1   
    27    14    15 1   
    28    14    46 1   
    29    14    47 1   
    30    15    48 1   
    31    16    17 1   
    32    16    18 1   
    33    16    49 1   
    34    17    50 1   
    35    17    51 1   
    36    17    52 1   
    37    18    19 2   
    38    18    20 1   
    39    20    21 1   
    40    20    53 1   
    41    21    22 1   
    42    21    23 1   
    43    21    54 1   
    44    22    55 1   
    45    22    56 1   
    46    22    57 1   
    47    23    24 2   
    48    23    25 1   
    49    25    26 1   
    50    25    58 1   
    51    26    27 1   
    52    26    32 1   
    53    26    59 1   
    54    27    28 1   
    55    27    60 1   
    56    27    61 1   
    57    28    29 1   
    58    28    62 1   
    59    28    63 1   
    60    29    30 1   
    61    29    31 2   
    62    30    64 1   
    63    30    65 1   
    64    30    66 1   
    65    32    33 1   
    66    32    34 1   
@<TRIPOS>SUBSTRUCTURE
     1 MU2         1 TEMP              0 ****  ****    0 ROOT
