@<TRIPOS>MOLECULE
MUA
   19    20     1     0     0
SMALL
bcc


@<TRIPOS>ATOM
      1 N1         -0.0260    0.0260   -0.0120 n         1 MUA     -0.582500
      2 C2          1.3740   -0.0390   -0.0480 c         1 MUA      0.817500
      3 O2          2.0020   -0.0550   -1.1260 o         1 MUA     -0.625500
      4 N3          2.1070   -0.0680    1.1680 n         1 MUA     -0.453100
      5 C4          1.4050   -0.1100    2.3560 cc        1 MUA      0.158200
      6 C5         -0.0060   -0.0610    2.3900 cd        1 MUA     -0.247600
      7 C6         -0.7950    0.0240    1.1720 c         1 MUA      0.756700
      8 O6         -2.0310    0.1050    1.1040 o         1 MUA     -0.599500
      9 N7         -0.4460   -0.1720    3.7310 n         1 MUA     -0.364100
     10 C8          0.7290   -0.1190    4.5450 c         1 MUA      0.765500
     11 N9          1.8900   -0.2140    3.6760 n         1 MUA     -0.358000
     12 C10         3.2190    0.0890    4.0920 c3        1 MUA      0.074300
     13 O8          0.7840   -0.1220    5.7820 o         1 MUA     -0.598500
     14 HN1        -0.4950    0.0640   -0.8930 hn        1 MUA      0.361500
     15 HN3         3.0940   -0.1820    1.1250 hn        1 MUA      0.361500
     16 HN7        -1.2760    0.2930    4.0210 hn        1 MUA      0.345500
     17 H101        3.2800   -0.0460    5.2070 h1        1 MUA      0.062367
     18 H102        3.5070    1.1430    3.8320 h1        1 MUA      0.062367
     19 H103        3.9330   -0.6200    3.5920 h1        1 MUA      0.062367
@<TRIPOS>BOND
     1    1    2 1
     2    1    7 1
     3    1   14 1
     4    2    3 2
     5    2    4 1
     6    4    5 1
     7    4   15 1
     8    5    6 2
     9    5   11 1
    10    6    7 1
    11    6    9 1
    12    7    8 2
    13    9   10 1
    14    9   16 1
    15   10   11 1
    16   10   13 2
    17   11   12 1
    18   12   17 1
    19   12   18 1
    20   12   19 1
@<TRIPOS>SUBSTRUCTURE
     1 MUA         1 TEMP              0 ****  ****    0 ROOT
