@<TRIPOS>MOLECULE
molecule
   38    38     1     0     0
SMALL
bcc


@<TRIPOS>ATOM
      1 C1           0.0000     0.0000     0.0000 c3         1 MUB       0.330900
      2 C2           1.5340     0.0000     0.0000 c3         1 MUB       0.109700
      3 C3           2.0750     0.0000     1.4360 c3         1 MUB       0.135100
      4 C4           1.3910    -1.0540     2.3120 c3         1 MUB       0.093100
      5 C5          -0.1360    -1.1140     2.1330 c3         1 MUB       0.141100
      6 C6          -0.8890    -0.0380     2.9120 c3         1 MUB       0.110400
      7 C7           3.2420    -1.0690    -1.4630 c          1 MUB       0.662100
      8 C8           3.5920    -2.3430    -2.1580 c3         1 MUB      -0.184100
      9 C9           2.8920     1.5960     2.9530 c3         1 MUB       0.031100
     10 C10          4.0280     2.2720     2.2150 c          1 MUB       0.870600
     11 C11          2.2990     2.5110     4.0090 c3         1 MUB      -0.073100
     12 O1          -0.4630    -0.0510    -1.3480 oh         1 MUB      -0.583800
     13 O3           1.8700     1.2860     2.0190 os         1 MUB      -0.422600
     14 O4           1.9350    -2.3300     1.9610 oh         1 MUB      -0.606800
     15 O5          -0.5060    -1.1040     0.7490 os         1 MUB      -0.452600
     16 O6          -0.6170    -0.2090     4.2910 oh         1 MUB      -0.602800
     17 O7           3.9900    -0.1030    -1.5590 o          1 MUB      -0.566100
     18 O11          5.0650     2.5790     3.0360 o          1 MUB      -0.834800
     19 O10          4.0240     2.5380     1.0190 o          1 MUB      -0.834800
     20 N2           2.0590    -1.1230    -0.7500 ns         1 MUB      -0.568900
     21 H1          -0.3470     0.9180     0.4580 h2         1 MUB       0.039700
     22 H2           1.8660     0.9130    -0.4800 h1         1 MUB       0.117700
     23 HN2          1.5400    -1.9780    -0.7520 hn         1 MUB       0.320500
     24 H81          3.6740    -3.1410    -1.4300 hc         1 MUB       0.051367
     25 H82          4.5380    -2.2250    -2.6730 hc         1 MUB       0.051367
     26 H83          2.8180    -2.5870    -2.8760 hc         1 MUB       0.051367
     27 H3           3.1380    -0.2100     1.4060 h1         1 MUB       0.092700
     28 H9           3.2500     0.6850     3.4180 h1         1 MUB       0.026700
     29 H111         3.0980     2.9600     4.5870 hc         1 MUB       0.031700
     30 H112         1.7210     3.2910     3.5280 hc         1 MUB       0.031700
     31 H113         1.6570     1.9370     4.6660 hc         1 MUB       0.031700
     32 H4A          1.6140    -0.8450     3.3520 h1         1 MUB       0.066700
     33 H5          -0.4550    -2.0700     2.5300 h1         1 MUB       0.064700
     34 H61         -0.5580     0.9430     2.5940 h1         1 MUB       0.042200
     35 H62         -1.9540    -0.1380     2.7360 h1         1 MUB       0.042200
     36 HO6         -1.4100    -0.0850     4.7860 ho         1 MUB       0.395000
     37 H4           2.1380    -2.8120     2.7450 ho         1 MUB       0.392000
     38 HO1         -1.2800     0.4150    -1.4180 ho         1 MUB       0.397000
@<TRIPOS>BOND
     1     1     2 1
     2     2     3 1
     3     3     4 1
     4     4     5 1
     5     5     6 1
     6     7     8 1
     7     9    10 1
     8     9    11 1
     9     1    12 1
    10     3    13 1
    11     9    13 1
    12     4    14 1
    13     1    15 1
    14     5    15 1
    15     6    16 1
    16     7    17 2
    17    10    18 1
    18    10    19 1
    19     2    20 1
    20     7    20 1
    21     1    21 1
    22     2    22 1
    23    20    23 1
    24     8    24 1
    25     8    25 1
    26     8    26 1
    27     3    27 1
    28     9    28 1
    29    11    29 1
    30    11    30 1
    31    11    31 1
    32     4    32 1
    33     5    33 1
    34     6    34 1
    35     6    35 1
    36    16    36 1
    37    14    37 1
    38    12    38 1
@<TRIPOS>SUBSTRUCTURE
     1 MUB         1 TEMP              0 ****  ****    0 ROOT
