@<TRIPOS>MOLECULE
MUB
   38    38     1     0     0
SMALL
bcc


@<TRIPOS>ATOM
      1 C1           0.0000     0.0000     0.0000 c3         1 MUB       0.386900
      2 C2           1.5340     0.0000     0.0000 c3         1 MUB      -0.015300
      3 C3           2.0750     0.0000     1.4360 c3         1 MUB       0.158100
      4 C4           1.3910    -1.0540     2.3120 c3         1 MUB       0.126100
      5 C5          -0.1360    -1.1140     2.1330 c3         1 MUB       0.167100
      6 C6          -0.8890    -0.0380     2.9120 c3         1 MUB       0.184400
      7 C7           3.2420    -1.0690    -1.4630 c          1 MUB       0.573100
      8 C8           3.5920    -2.3430    -2.1580 c3         1 MUB      -0.091100
      9 C9           2.8920     1.5960     2.9530 c3         1 MUB       0.061100
     10 C10          4.0280     2.2720     2.2150 c          1 MUB       0.954600
     11 C11          2.2990     2.5110     4.0090 c3         1 MUB       0.008900
     12 O1          -0.4630    -0.0510    -1.3480 oh         1 MUB      -0.573800
     13 O3           1.8700     1.2860     2.0190 os         1 MUB      -0.398600
     14 O4           1.9350    -2.3300     1.9610 oh         1 MUB      -0.588800
     15 O5          -0.5060    -1.1040     0.7490 os         1 MUB      -0.433600
     16 O6          -0.6170    -0.2090     4.2910 oh         1 MUB      -0.582800
     17 O7           3.9900    -0.1030    -1.5590 o          1 MUB      -0.598100
     18 O11          5.0650     2.5790     3.0360 o          1 MUB      -0.883800
     19 O10          4.0240     2.5380     1.0190 o          1 MUB      -0.883800
     20 N2           2.0590    -1.1230    -0.7500 ns         1 MUB      -0.180900
     21 H1          -0.3470     0.9180     0.4580 h2         1 MUB       0.001700
     22 H2           1.8660     0.9130    -0.4800 h1         1 MUB       0.092700
     23 HN2          1.5400    -1.9780    -0.7520 hn         1 MUB       0.177500
     24 H81          3.6740    -3.1410    -1.4300 hc         1 MUB       0.016033
     25 H82          4.5380    -2.2250    -2.6730 hc         1 MUB       0.016033
     26 H83          2.8180    -2.5870    -2.8760 hc         1 MUB       0.016033
     27 H3           3.1380    -0.2100     1.4060 h1         1 MUB       0.061700
     28 H9           3.2500     0.6850     3.4180 h1         1 MUB       0.003700
     29 H111         3.0980     2.9600     4.5870 hc         1 MUB       0.000700
     30 H112         1.7210     3.2910     3.5280 hc         1 MUB       0.000700
     31 H113         1.6570     1.9370     4.6660 hc         1 MUB       0.000700
     32 H4A          1.6140    -0.8450     3.3520 h1         1 MUB       0.036700
     33 H5          -0.4550    -2.0700     2.5300 h1         1 MUB       0.024700
     34 H61         -0.5580     0.9430     2.5940 h1         1 MUB       0.007200
     35 H62         -1.9540    -0.1380     2.7360 h1         1 MUB       0.007200
     36 HO6         -1.4100    -0.0850     4.7860 ho         1 MUB       0.381000
     37 H4           2.1380    -2.8120     2.7450 ho         1 MUB       0.381000
     38 HO1         -1.2800     0.4150    -1.4180 ho         1 MUB       0.385000
@<TRIPOS>BOND
     1     1     2 1   
     2     1    12 1   
     3     1    15 1   
     4     1    21 1   
     5     2     3 1   
     6     2    20 1   
     7     2    22 1   
     8     3     4 1   
     9     3    13 1   
    10     3    27 1   
    11     4     5 1   
    12     4    14 1   
    13     4    32 1   
    14     5     6 1   
    15     5    15 1   
    16     5    33 1   
    17     6    16 1   
    18     6    34 1   
    19     6    35 1   
    20     7     8 1   
    21     7    17 2   
    22     7    20 1   
    23     8    24 1   
    24     8    25 1   
    25     8    26 1   
    26     9    10 1   
    27     9    11 1   
    28     9    13 1   
    29     9    28 1   
    30    10    18 1   
    31    10    19 1   
    32    11    29 1   
    33    11    30 1   
    34    11    31 1   
    35    12    38 1   
    36    14    37 1   
    37    16    36 1   
    38    20    23 1   
@<TRIPOS>SUBSTRUCTURE
     1 MUB         1 TEMP              0 ****  ****    0 ROOT
