@<TRIPOS>MOLECULE
MUC
   15    15     1     0     0
SMALL
bcc


@<TRIPOS>ATOM
      1 C1         -0.1280    0.8890   -0.6270 c         1 MUC      0.913600
      2 O1          1.0710    0.9670   -0.2490 o         1 MUC     -0.840800
      3 O2         -0.9190    1.8760   -0.6950 o         1 MUC     -0.840800
      4 C4         -3.0180    0.2100   -1.5370 c2        1 MUC     -0.069200
      5 C5         -3.8920   -0.5560   -2.2240 ce        1 MUC     -0.315200
      6 C6         -3.6070   -1.9750   -1.9080 c         1 MUC      0.709800
      7 O6         -4.1140   -3.0410   -2.2550 o         1 MUC     -0.628500
      8 O3         -2.5410   -2.0470   -1.0260 os        1 MUC     -0.435900
      9 C3         -2.1050   -0.6760   -0.7170 c3        1 MUC      0.160300
     10 C2         -0.6430   -0.5030   -1.0520 c3        1 MUC     -0.206400
     11 H3         -2.2870   -0.5380    0.3820 h1        1 MUC      0.086700
     12 H2         -0.0480   -1.2930   -0.5300 hc        1 MUC      0.047700
     13 H2A        -0.4800   -0.6160   -2.1520 hc        1 MUC      0.047700
     14 H4         -2.8590    1.2950   -1.5090 ha        1 MUC      0.215000
     15 H5         -4.6830   -0.2680   -2.9110 ha        1 MUC      0.155000
@<TRIPOS>BOND
     1    1    2 1   
     2    1    3 1   
     3    1   10 1   
     4    4    5 2   
     5    4    9 1   
     6    4   14 1   
     7    5    6 1   
     8    5   15 1   
     9    6    7 2   
    10    6    8 1   
    11    8    9 1   
    12    9   10 1   
    13    9   11 1   
    14   10   12 1   
    15   10   13 1   
@<TRIPOS>SUBSTRUCTURE
     1 MUC         1 TEMP              0 ****  ****    0 ROOT
