@<TRIPOS>MOLECULE
MUD
   33    32     1     0     0
SMALL
bcc


@<TRIPOS>ATOM
      1 O3           0.0000     0.0000     0.0000 o          1 MUD      -0.936300
      2 C2           1.3420     0.0000     0.0000 c          1 MUD       0.986600
      3 O1           1.9460     0.0000     1.0470 o          1 MUD      -0.936300
      4 C4           2.0960    -0.0000    -1.3050 c3         1 MUD      -0.142400
      5 C5           3.6000    -0.0010    -1.0250 c3         1 MUD      -0.012400
      6 C6           4.3650    -0.0010    -2.3500 c3         1 MUD      -0.085300
      7 C7           5.8420     0.1220    -2.0770 c          1 MUD       0.988600
      8 O8           6.5980    -0.7460    -2.4410 o          1 MUD      -0.925800
      9 O9           6.3170     1.1970    -1.4280 o          1 MUD      -0.925800
     10 N10          4.1030    -1.2530    -3.0640 ns         1 MUD      -0.163900
     11 C11          4.2240    -1.3010    -4.4070 c          1 MUD       0.599100
     12 O20          4.5500    -0.3040    -5.0230 o          1 MUD      -0.731100
     13 N12          3.9840    -2.4520    -5.0640 ns         1 MUD      -0.205900
     14 C13          4.1150    -2.5040    -6.5220 c3         1 MUD      -0.053300
     15 C17          2.8300    -2.0410    -7.1590 c          1 MUD       0.976600
     16 O18          2.7190    -2.0040    -8.4960 o          1 MUD      -0.898800
     17 O19          1.9010    -1.7010    -6.4660 o          1 MUD      -0.898800
     18 C14          4.4100    -3.9400    -6.9570 c3         1 MUD       0.117700
     19 S15          5.9570    -4.4990    -6.1900 ss         1 MUD      -0.419200
     20 C16          6.1340    -6.1930    -6.8140 c3         1 MUD       0.082000
     21 H4           1.8340    -0.8840    -1.8730 hc         1 MUD       0.010200
     22 H4A          1.8350     0.8850    -1.8730 hc         1 MUD       0.010200
     23 H5           3.8610    -0.8850    -0.4560 hc         1 MUD       0.024700
     24 H5A          3.8610     0.8840    -0.4570 hc         1 MUD       0.024700
     25 H6           4.0390     0.8350    -2.9560 h1         1 MUD       0.053700
     26 HN10         3.8840    -2.0840    -2.5520 hn         1 MUD       0.144500
     27 HN12         3.6860    -3.2640    -4.5590 hn         1 MUD       0.148500
     28 H13          4.9270    -1.8580    -6.8350 h1         1 MUD       0.068700
     29 H14          3.5980    -4.5860    -6.6440 h1         1 MUD       0.032200
     30 H14A         4.5070    -3.9790    -8.0350 h1         1 MUD       0.032200
     31 H16          7.0610    -6.6180    -6.4490 h1         1 MUD       0.011367
     32 H16A         6.1450    -6.1790    -7.8970 h1         1 MUD       0.011367
     33 H16B         5.3010    -6.7940    -6.4690 h1         1 MUD       0.011367
@<TRIPOS>BOND
     1     1     2 1   
     2     2     3 1   
     3     2     4 1   
     4     4     5 1   
     5     4    21 1   
     6     4    22 1   
     7     5     6 1   
     8     5    23 1   
     9     5    24 1   
    10     6     7 1   
    11     6    10 1   
    12     6    25 1   
    13     7     8 1   
    14     7     9 1   
    15    10    11 1   
    16    10    26 1   
    17    11    12 2   
    18    11    13 1   
    19    13    14 1   
    20    13    27 1   
    21    14    15 1   
    22    14    18 1   
    23    14    28 1   
    24    15    16 1   
    25    15    17 1   
    26    18    19 1   
    27    18    29 1   
    28    18    30 1   
    29    19    20 1   
    30    20    31 1   
    31    20    32 1   
    32    20    33 1   
@<TRIPOS>SUBSTRUCTURE
     1 MUD         1 TEMP              0 ****  ****    0 ROOT
