@<TRIPOS>MOLECULE
MUF
   62    66     1     0     0
SMALL
bcc


@<TRIPOS>ATOM
      1 C1          0.2340    0.1250   -0.1030 c3        1 MUF     -0.066400
      2 C2          1.3280   -0.7200    0.5200 c3        1 MUF     -0.051200
      3 C3          2.2880    0.0760    1.3240 ce        1 MUF     -0.119400
      4 C4          1.9970    1.3200    1.7430 cf        1 MUF     -0.192000
      5 C5          0.7510    1.9990    1.4250 cf        1 MUF     -0.021200
      6 C6          0.6200    3.3260    1.6030 c2        1 MUF     -0.232200
      7 C7         -0.5800    4.1090    1.2450 c3        1 MUF     -0.023200
      8 C8         -1.7970    3.2350    0.9780 c3        1 MUF     -0.047700
      9 C9         -1.4020    2.0070    0.1430 c3        1 MUF     -0.047700
     10 C10        -0.3680    1.1360    0.8850 c3        1 MUF     -0.007800
     11 C11        -2.6190    1.2000   -0.2970 c3        1 MUF     -0.075400
     12 C12        -3.7160    2.0260   -0.9490 c3        1 MUF     -0.067400
     13 C13        -4.1230    3.1790   -0.0470 c3        1 MUF     -0.037000
     14 C14        -2.8460    4.0140    0.2120 c3        1 MUF     -0.059700
     15 C15        -3.3670    5.3230    0.7880 c3        1 MUF     -0.073400
     16 C16        -4.7110    5.5450    0.0900 c3        1 MUF     -0.072400
     17 C17        -5.0430    4.2520   -0.6840 c3        1 MUF     -0.158700
     18 C18        -4.7690    2.6560    1.2240 c3        1 MUF     -0.089100
     19 C19        -1.0000    0.3790    2.0500 c3        1 MUF     -0.081100
     20 C20        -6.5150    3.9380   -0.6270 c         1 MUF      0.593700
     21 O52        -7.1830    4.0990    0.4040 o         1 MUF     -0.543100
     22 C28         3.6190   -0.5920    1.6410 c         1 MUF      0.899800
     23 O76         4.3300   -0.1030    2.5630 o         1 MUF     -0.831300
     24 O82         3.9430   -1.6070    0.9590 o         1 MUF     -0.831300
     25 C52        -7.1750    3.4830   -1.8750 ca        1 MUF     -0.202600
     26 C53        -8.5590    3.6910   -2.0080 ca        1 MUF     -0.050500
     27 C54        -9.2350    3.2980   -3.1550 ca        1 MUF     -0.202000
     28 C55        -8.5140    2.6710   -4.1870 ca        1 MUF      0.143100
     29 C56        -7.1360    2.4430   -4.0640 ca        1 MUF     -0.202000
     30 C57        -6.4760    2.8530   -2.9090 ca        1 MUF     -0.050500
     31 O57        -9.2310    2.3020   -5.3010 oh        1 MUF     -0.498100
     32 H1          0.6520    0.6860   -0.9790 hc        1 MUF      0.026700
     33 H1A        -0.5760   -0.5500   -0.4840 hc        1 MUF      0.026700
     34 H2          0.8740   -1.5020    1.1870 hc        1 MUF      0.061700
     35 H2A         1.8970   -1.2660   -0.2820 hc        1 MUF      0.061700
     36 H4          2.7340    1.8760    2.3450 ha        1 MUF      0.145000
     37 H6          1.4560    3.9140    2.0140 ha        1 MUF      0.120000
     38 H7         -0.8280    4.8340    2.0670 hc        1 MUF      0.030200
     39 H7A        -0.3480    4.7230    0.3300 hc        1 MUF      0.030200
     40 H8         -2.2140    2.9000    1.9660 hc        1 MUF      0.057700
     41 H9         -0.8970    2.3940   -0.7890 hc        1 MUF      0.045700
     42 H11        -2.2870    0.4200   -1.0330 hc        1 MUF      0.044700
     43 H11A       -3.0510    0.6590    0.5860 hc        1 MUF      0.044700
     44 H12        -3.3500    2.4260   -1.9310 hc        1 MUF      0.032200
     45 H12A       -4.5990    1.3650   -1.1540 hc        1 MUF      0.032200
     46 H14        -2.3980    4.2570   -0.7980 hc        1 MUF      0.042700
     47 H15        -3.5020    5.2430    1.8950 hc        1 MUF      0.045700
     48 H15A       -2.6570    6.1620    0.5900 hc        1 MUF      0.045700
     49 H16        -5.5090    5.7650    0.8430 hc        1 MUF      0.048200
     50 H16A       -4.6550    6.4070   -0.6180 hc        1 MUF      0.048200
     51 H17        -4.7390    4.3890   -1.7570 hc        1 MUF      0.059700
     52 H18        -5.1140    3.5070    1.8610 hc        1 MUF      0.043033
     53 H18A       -5.6580    2.0290    0.9670 hc        1 MUF      0.043033
     54 H18B       -4.0570    2.0320    1.8150 hc        1 MUF      0.043033
     55 H19        -1.6130   -0.4750    1.6740 hc        1 MUF      0.034700
     56 H19A       -1.6510    1.0490    2.6590 hc        1 MUF      0.034700
     57 H19B       -0.1940   -0.0310    2.7090 hc        1 MUF      0.034700
     58 H53        -9.1070    4.1700   -1.1790 ha        1 MUF      0.152500
     59 H54       -10.3150    3.4620   -3.2680 ha        1 MUF      0.143500
     60 H56        -6.5820    1.9430   -4.8710 ha        1 MUF      0.143500
     61 H57        -5.3950    2.6610   -2.8130 ha        1 MUF      0.152500
     62 HO57       -8.6210    1.8710   -5.9180 ho        1 MUF      0.420000
@<TRIPOS>BOND
     1    1    2 1   
     2    1   10 1   
     3    1   32 1   
     4    1   33 1   
     5    2    3 1   
     6    2   34 1   
     7    2   35 1   
     8    3    4 2   
     9    3   22 1   
    10    4    5 1   
    11    4   36 1   
    12    5    6 2   
    13    5   10 1   
    14    6    7 1   
    15    6   37 1   
    16    7    8 1   
    17    7   38 1   
    18    7   39 1   
    19    8    9 1   
    20    8   14 1   
    21    8   40 1   
    22    9   10 1   
    23    9   11 1   
    24    9   41 1   
    25   10   19 1   
    26   11   12 1   
    27   11   42 1   
    28   11   43 1   
    29   12   13 1   
    30   12   44 1   
    31   12   45 1   
    32   13   14 1   
    33   13   17 1   
    34   13   18 1   
    35   14   15 1   
    36   14   46 1   
    37   15   16 1   
    38   15   47 1   
    39   15   48 1   
    40   16   17 1   
    41   16   49 1   
    42   16   50 1   
    43   17   20 1   
    44   17   51 1   
    45   18   52 1   
    46   18   53 1   
    47   18   54 1   
    48   19   55 1   
    49   19   56 1   
    50   19   57 1   
    51   20   21 2   
    52   20   25 1   
    53   22   23 1   
    54   22   24 1   
    55   25   26 ar  
    56   25   30 ar  
    57   26   27 ar  
    58   26   58 1   
    59   27   28 ar  
    60   27   59 1   
    61   28   29 ar  
    62   28   31 1   
    63   29   30 ar  
    64   29   60 1   
    65   30   61 1   
    66   31   62 1   
@<TRIPOS>SUBSTRUCTURE
     1 MUF         1 TEMP              0 ****  ****    0 ROOT
