@<TRIPOS>MOLECULE
molecule
   62    66     1     0     0
SMALL
bcc


@<TRIPOS>ATOM
      1 C1           1.5220     0.0000     0.0000 c3         1 MUF      -0.066400
      2 C2           2.1080     0.2230     1.3860 c3         1 MUF      -0.047200
      3 C3           1.5040    -0.7300     2.3880 ce         1 MUF      -0.091400
      4 C4           0.1420    -0.8310     2.4020 cf         1 MUF      -0.185000
      5 C5          -0.5510     0.0000     1.3960 cf         1 MUF      -0.033200
      6 C6          -1.6180     0.6940     1.7510 c2         1 MUF      -0.230200
      7 C7          -2.3870     1.5790     0.8200 c3         1 MUF      -0.026200
      8 C8          -2.0520     1.2550    -0.6390 c3         1 MUF      -0.061700
      9 C9          -0.5200     1.2090    -0.7840 c3         1 MUF      -0.052700
     10 C10          0.0000     0.0000     0.0000 c3         1 MUF      -0.014800
     11 C11         -0.0930     1.0610    -2.2430 c3         1 MUF      -0.083400
     12 C12         -0.7230     2.1340    -3.1420 c3         1 MUF      -0.070400
     13 C13         -2.2290     2.0110    -2.9920 c3         1 MUF      -0.056000
     14 C14         -2.5760     2.3720    -1.5240 c3         1 MUF      -0.062700
     15 C15         -4.0990     2.5320    -1.5920 c3         1 MUF      -0.074400
     16 C16         -4.3080     3.2960    -2.9280 c3         1 MUF      -0.077400
     17 C17         -3.0700     2.9940    -3.8000 c3         1 MUF      -0.158700
     18 C18         -2.6660     0.5730    -3.2810 c3         1 MUF      -0.106100
     19 C19         -0.4830    -1.2730    -0.6990 c3         1 MUF      -0.083100
     20 C20         -3.5020     2.3670    -5.1010 c          1 MUF       0.592700
     21 O52         -4.5440     1.7510    -5.1600 o          1 MUF      -0.536100
     22 C28          2.3140    -1.4860     3.2750 c          1 MUF       0.871800
     23 O76          1.7980    -2.2450     4.0720 o          1 MUF      -0.840800
     24 O82          3.6570    -1.3610     3.2340 o          1 MUF      -0.840800
     25 C52         -2.6590     2.5020    -6.2960 ca         1 MUF      -0.181600
     26 C53         -3.0580     1.9200    -7.5060 ca         1 MUF      -0.067500
     27 C54         -2.2670     2.0480    -8.6190 ca         1 MUF      -0.170500
     28 C55         -1.0720     2.7550    -8.5480 ca         1 MUF       0.127100
     29 C56         -0.6720     3.3360    -7.3490 ca         1 MUF      -0.170500
     30 C57         -1.4580     3.2180    -6.2320 ca         1 MUF      -0.067500
     31 O57         -0.2940     2.8800    -9.6520 oh         1 MUF      -0.523100
     32 H1           1.8700     0.7880    -0.6560 hc         1 MUF       0.034700
     33 H1A          1.8700    -0.9550    -0.3760 hc         1 MUF       0.034700
     34 H2           3.1790     0.0650     1.3470 hc         1 MUF       0.057200
     35 H2A          1.9040     1.2400     1.6970 hc         1 MUF       0.057200
     36 H4          -0.3710    -1.1200     3.3120 ha         1 MUF       0.152000
     37 H6          -1.9550     0.6200     2.7780 ha         1 MUF       0.120000
     38 H7          -2.1330     2.6120     1.0220 hc         1 MUF       0.034200
     39 H7A         -3.4480     1.4290     0.9830 hc         1 MUF       0.034200
     40 H8          -2.4890     0.3070    -0.9270 hc         1 MUF       0.069700
     41 H9          -0.0920     2.1160    -0.3740 hc         1 MUF       0.054700
     42 H11          0.9850     1.1440    -2.3030 hc         1 MUF       0.049700
     43 H11A        -0.3960     0.0840    -2.5990 hc         1 MUF       0.049700
     44 H12         -0.4000     3.1170    -2.8240 hc         1 MUF       0.037200
     45 H12A        -0.4410     1.9610    -4.1740 hc         1 MUF       0.037200
     46 H14         -2.1130     3.3140    -1.2520 hc         1 MUF       0.053700
     47 H15         -4.5830     1.5640    -1.6270 hc         1 MUF       0.048200
     48 H15A        -4.4590     3.1190    -0.7560 hc         1 MUF       0.048200
     49 H16         -4.3770     4.3600    -2.7390 hc         1 MUF       0.050200
     50 H16A        -5.2040     2.9410    -3.4210 hc         1 MUF       0.050200
     51 H17         -2.5110     3.9040    -3.9820 hc         1 MUF       0.060700
     52 H18         -2.4090    -0.0590    -2.4400 hc         1 MUF       0.048367
     53 H18A        -2.1620     0.2140    -4.1700 hc         1 MUF       0.048367
     54 H18B        -3.7380     0.5460    -3.4390 hc         1 MUF       0.048367
     55 H19         -1.5590    -1.2350    -0.8140 hc         1 MUF       0.035033
     56 H19A        -0.0170    -1.3480    -1.6740 hc         1 MUF       0.035033
     57 H19B        -0.2130    -2.1360    -0.1030 hc         1 MUF       0.035033
     58 H53         -3.9890     1.3690    -7.5620 ha         1 MUF       0.151000
     59 H54         -2.5750     1.5980    -9.5550 ha         1 MUF       0.141500
     60 H56          0.2590     3.8880    -7.3000 ha         1 MUF       0.141500
     61 H57         -1.1450     3.6710    -5.2980 ha         1 MUF       0.151000
     62 HO57        -0.5410     3.6580   -10.1240 ho         1 MUF       0.419000
@<TRIPOS>BOND
     1    10     1 1
     2     1     2 1
     3     1    32 1
     4     1    33 1
     5     2     3 1
     6     2    34 1
     7     2    35 1
     8     3     4 2
     9     3    22 1
    10     5     4 1
    11     4    36 1
    12    10     5 1
    13     5     6 2
    14     7     6 1
    15     6    37 1
    16     8     7 1
    17     7    38 1
    18     7    39 1
    19    14     8 1
    20     9     8 1
    21     8    40 1
    22    11     9 1
    23     9    10 1
    24     9    41 1
    25    19    10 1
    26    12    11 1
    27    11    42 1
    28    11    43 1
    29    12    13 1
    30    12    44 1
    31    12    45 1
    32    18    13 1
    33    17    13 1
    34    13    14 1
    35    14    15 1
    36    14    46 1
    37    16    15 1
    38    15    47 1
    39    15    48 1
    40    17    16 1
    41    16    49 1
    42    16    50 1
    43    20    17 1
    44    17    51 1
    45    18    52 1
    46    18    53 1
    47    18    54 1
    48    19    55 1
    49    19    56 1
    50    19    57 1
    51    21    20 2
    52    25    20 1
    53    23    22 1
    54    22    24 1
    55    30    25 ar
    56    25    26 ar
    57    27    26 ar
    58    26    58 1
    59    28    27 ar
    60    27    59 1
    61    29    28 ar
    62    31    28 1
    63    29    30 ar
    64    29    60 1
    65    30    61 1
    66    31    62 1
@<TRIPOS>SUBSTRUCTURE
     1 MUF         1 TEMP              0 ****  ****    0 ROOT
