@<TRIPOS>MOLECULE
MUH
   51    64     1     0     0
SMALL
bcc


@<TRIPOS>ATOM
      1 C9           0.0000     0.0000     0.0000 ca         1 MUH      -0.037000
      2 C10          1.3840     0.0000     0.0000 ca         1 MUH      -0.184000
      3 C11          2.0640     0.0000     1.2180 ca         1 MUH       0.008000
      4 C12          1.3500     0.0020     2.4160 ca         1 MUH      -0.165000
      5 C13         -0.0450     0.0020     2.3970 ca         1 MUH      -0.042000
      6 C14         -0.7260     0.0020     1.1790 ca         1 MUH      -0.193000
      7 C15          2.0530     0.0020     3.7340 c3         1 MUH      -0.054000
      8 N3          -0.6930     0.0000    -1.2370 ns         1 MUH       0.081000
      9 C8          -0.1590    -0.0010    -2.5350 c2         1 MUH       0.276000
     10 C16         -2.3910     0.6240    -3.3840 ca         1 MUH      -0.047000
     11 C17         -1.1430     0.0420    -3.6060 ca         1 MUH      -0.150000
     12 C18         -0.8390    -0.5020    -4.8540 ca         1 MUH       0.031000
     13 C19         -1.7820    -0.4620    -5.8800 ca         1 MUH      -0.211000
     14 C20         -3.0300     0.1200    -5.6580 ca         1 MUH      -0.020000
     15 C6          -3.3340     0.6640    -4.4100 ca         1 MUH      -0.115000
     16 C7          -1.4590    -1.0450    -7.2140 c3         1 MUH       0.415000
     17 F3          -2.4760    -0.9370    -8.1200 f          1 MUH      -0.138000
     18 F1          -0.3810    -0.4630    -7.8180 f          1 MUH      -0.138000
     19 F2          -1.1670    -2.3770    -7.1490 f          1 MUH      -0.138000
     20 N4           3.4760    -0.0010     1.2180 nu         1 MUH       0.102000
     21 C21          5.6930    -0.0030    -0.0600 cv         1 MUH      -0.177000
     22 C22          6.5390     0.5830    -0.9950 DU         1 MUH      -0.106000
     23 C23          6.1310     1.7250    -1.6750 DU         1 MUH       0.073500
     24 C24          4.8770     2.2380    -1.3860 DU         1 MUH      -0.370000
     25 N5           4.0260     1.6970    -0.4850 n2         1 MUH       0.076000
     26 C5           4.4510     0.5830     0.1630 c2         1 MUH      -0.172000
     27 C1           6.1080     1.8990    -1.7650 DU         1 MUH       0.073500
     28 C2           6.0970     2.2760    -3.0930 DU         1 MUH       0.123000
     29 N1           6.4650     1.4640    -4.1060 n2         1 MUH      -0.169000
     30 C3           6.8520     0.2290    -3.7320 c2         1 MUH       0.076000
     31 N2           6.9060    -0.2570    -2.4770 nq         1 MUH      -0.322000
     32 C4           6.5260     0.6100    -1.5200 DU         1 MUH      -0.106000
     33 O1           1.0570    -0.0020    -2.7680 o          1 MUH      -0.369000
     34 H10          1.9320    -0.0010    -0.9340 ha         1 MUH       0.172000
     35 H13         -0.5990     0.0030     3.3270 ha         1 MUH       0.102000
     36 H14         -1.8090     0.0020     1.1560 ha         1 MUH       0.105000
     37 H151         2.5080    -0.9670     3.9010 hc         1 MUH       0.044333
     38 H152         1.3390     0.2060     4.5230 hc         1 MUH       0.044333
     39 H153         2.8200     0.7660     3.7340 hc         1 MUH       0.044333
     40 HN3         -1.6920    -0.0000    -1.1770 hn         1 MUH       0.076000
     41 H18          0.1300    -0.9550    -5.0260 ha         1 MUH       0.135000
     42 H20         -3.7630     0.1510    -6.4550 ha         1 MUH       0.121000
     43 H6          -4.3030     1.1160    -4.2380 ha         1 MUH       0.115000
     44 HN4          3.8780    -0.4570     2.0130 hn         1 MUH       0.076000
     45 H22          7.5130     0.1520    -1.1920 DU         1 MUH       0.569000
     46 H23          6.7730     2.1990    -2.4080 DU         1 MUH      -0.035000
     47 H24          4.5570     3.1270    -1.9150 ha         1 MUH       0.099000
     48 H1           5.8070     2.5710    -0.9700 DU         1 MUH       0.071000
     49 H2           5.7760     3.2820    -3.3350 ha         1 MUH       0.120000
     50 H3           7.1530    -0.4450    -4.5250 h5         1 MUH       0.120000
     51 H16         -2.6270     1.0460    -2.4140 ha         1 MUH       0.111000
@<TRIPOS>BOND
     1     1     2 1   
     2     1     6 1   
     3     1     8 1   
     4     2     3 1   
     5     2    34 1   
     6     3     4 1   
     7     3    20 1   
     8     4     5 1   
     9     4     7 1   
    10     5     6 1   
    11     5    35 1   
    12     6    36 1   
    13     7    37 1   
    14     7    38 1   
    15     7    39 1   
    16     8     9 1   
    17     8    40 1   
    18     9    11 1   
    19     9    33 1   
    20    10    11 1   
    21    10    15 1   
    22    10    51 1   
    23    11    12 1   
    24    12    13 1   
    25    12    41 1   
    26    13    14 1   
    27    13    16 1   
    28    14    15 1   
    29    14    42 1   
    30    15    43 1   
    31    16    17 1   
    32    16    18 1   
    33    16    19 1   
    34    20    26 1   
    35    20    44 1   
    36    21    22 1   
    37    21    26 1   
    38    21    32 1   
    39    22    23 1   
    40    22    27 1   
    41    22    31 1   
    42    22    45 1   
    43    23    24 1   
    44    23    28 1   
    45    23    32 1   
    46    23    46 1   
    47    23    48 1   
    48    24    25 1   
    49    24    27 1   
    50    24    47 1   
    51    24    48 1   
    52    25    26 1   
    53    27    28 1   
    54    27    32 1   
    55    27    46 1   
    56    27    48 1   
    57    28    29 1   
    58    28    46 1   
    59    28    49 1   
    60    29    30 1   
    61    30    31 1   
    62    30    50 1   
    63    31    32 1   
    64    32    45 1   
@<TRIPOS>SUBSTRUCTURE
     1 MUH         1 TEMP              0 ****  ****    0 ROOT
