@<TRIPOS>MOLECULE
molecule
   49    51     1     0     0
SMALL
bcc


@<TRIPOS>ATOM
      1 N1           0.0000     0.0000     0.0000 nb         1 MUJ      -0.817000
      2 C2           2.0070     0.0000     1.2210 ca         1 MUJ      -0.405900
      3 C3           1.3290     0.0000     0.0000 ca         1 MUJ       0.743200
      4 C4           1.2650     0.0010     2.3860 ca         1 MUJ       0.499200
      5 C5          -0.6750     0.0000     1.1400 ca         1 MUJ       0.966900
      6 N6          -0.0580     0.0010     2.3130 nb         1 MUJ      -0.785000
      7 C7           3.5130    -0.0010     1.2680 c3         1 MUJ       0.034200
      8 C8           4.0200     1.4140     1.1580 ca         1 MUJ      -0.083300
      9 C9           4.6790     3.4660     2.2060 ca         1 MUJ      -0.188000
     10 C10          4.2160     2.1670     2.3010 ca         1 MUJ      -0.120000
     11 C11          4.9510     4.0150     0.9630 ca         1 MUJ       0.117100
     12 C12          4.2930     1.9540    -0.0850 ca         1 MUJ      -0.184000
     13 C13          4.7590     3.2550    -0.1870 ca         1 MUJ       0.119100
     14 O14          5.0240     3.7900    -1.4090 os         1 MUJ      -0.309900
     15 C15          4.8040     2.9520    -2.5450 c3         1 MUJ       0.127700
     16 O16          5.4080     5.2930     0.8670 os         1 MUJ      -0.308900
     17 C17          5.5850     6.0110     2.0890 c3         1 MUJ       0.190700
     18 C18          6.0940     7.3980     1.7880 ca         1 MUJ      -0.133300
     19 C19          5.6630     9.7020     1.3020 ca         1 MUJ      -0.194500
     20 C20          5.1990     8.4300     1.5800 ca         1 MUJ      -0.064500
     21 C21          7.0270     9.9420     1.2350 ca         1 MUJ       0.151100
     22 C22          7.4540     7.6360     1.7260 ca         1 MUJ      -0.064500
     23 C23          7.9230     8.9050     1.4490 ca         1 MUJ      -0.194500
     24 O24          7.4860    11.1920     0.9620 os         1 MUJ      -0.328900
     25 C25          8.9040    11.3660     0.9090 c3         1 MUJ       0.128700
     26 N26          2.0320    -0.0020    -1.1940 nv         1 MUJ      -1.008500
     27 N27         -2.0580     0.0010     1.1040 nv         1 MUJ      -1.060500
     28 H4           1.7590     0.0020     3.3500 h4         1 MUJ       0.025100
     29 H71C         3.8990    -0.5890     0.4440 hc         1 MUJ       0.049200
     30 H72C         3.8450    -0.4310     2.2050 hc         1 MUJ       0.049200
     31 H261         3.0080    -0.2250    -1.1980 hn         1 MUJ       0.441800
     32 H262         1.5470     0.1340    -2.0590 hn         1 MUJ       0.441800
     33 H271        -2.5580     0.8680     1.1100 hn         1 MUJ       0.444300
     34 H272        -2.5580    -0.8650     1.0700 hn         1 MUJ       0.444300
     35 H10          4.0040     1.7390     3.2730 ha         1 MUJ       0.131000
     36 H12          4.1430     1.3610    -0.9790 ha         1 MUJ       0.134000
     37 H9           4.8300     4.0550     3.1020 ha         1 MUJ       0.141000
     38 H151         5.3730     2.0370    -2.4360 h1         1 MUJ       0.038700
     39 H152         3.7500     2.7150    -2.6200 h1         1 MUJ       0.038700
     40 H153         5.1220     3.4700    -3.4430 h1         1 MUJ       0.038700
     41 H171         4.6370     6.0800     2.6090 h1         1 MUJ       0.037700
     42 H172         6.3020     5.4920     2.7130 h1         1 MUJ       0.037700
     43 H20          4.1330     8.2420     1.6330 ha         1 MUJ       0.136500
     44 H22          8.1530     6.8250     1.8940 ha         1 MUJ       0.136500
     45 H19          4.9610    10.5110     1.1370 ha         1 MUJ       0.141000
     46 H23          8.9890     9.0900     1.3990 ha         1 MUJ       0.141000
     47 H251         9.1320    12.4000     0.6810 h1         1 MUJ       0.041700
     48 H252         9.3170    10.7270     0.1380 h1         1 MUJ       0.041700
     49 H253         9.3360    11.1040     1.8670 h1         1 MUJ       0.041700
@<TRIPOS>BOND
     1     1     3 ar
     2     1     5 ar
     3     2     3 ar
     4     2     4 ar
     5     2     7 1
     6     3    26 1
     7     4     6 ar
     8     5     6 ar
     9     5    27 1
    10     7     8 1
    11     8    10 ar
    12     8    12 ar
    13     9    10 ar
    14     9    11 ar
    15    11    13 ar
    16    11    16 1
    17    12    13 ar
    18    13    14 1
    19    14    15 1
    20    16    17 1
    21    17    18 1
    22    18    20 ar
    23    18    22 ar
    24    19    20 ar
    25    19    21 ar
    26    21    23 ar
    27    21    24 1
    28    22    23 ar
    29    24    25 1
    30     4    28 1
    31     7    29 1
    32     7    30 1
    33    26    31 1
    34    26    32 1
    35    27    33 1
    36    27    34 1
    37    10    35 1
    38    12    36 1
    39     9    37 1
    40    15    38 1
    41    15    39 1
    42    15    40 1
    43    17    41 1
    44    17    42 1
    45    20    43 1
    46    22    44 1
    47    19    45 1
    48    23    46 1
    49    25    47 1
    50    25    48 1
    51    25    49 1
@<TRIPOS>SUBSTRUCTURE
     1 MUJ         1 TEMP              0 ****  ****    0 ROOT
