@<TRIPOS>MOLECULE
molecule
   81    83     1     0     0
SMALL
bcc


@<TRIPOS>ATOM
      1 O1           0.0000     0.0000     0.0000 o          1 MUL      -0.510100
      2 O2           4.5880     1.8520     3.9510 oh         1 MUL      -0.605800
      3 C1           3.4320     0.0000     1.1870 c3         1 MUL      -0.062400
      4 C2           2.4320     0.0000     0.0000 c3         1 MUL      -0.194400
      5 C3           1.0340     0.1420     0.6060 c          1 MUL       0.595100
      6 C4           1.2430     0.4730     2.0450 c3         1 MUL      -0.179700
      7 C5           0.2290     0.2540     3.0840 c3         1 MUL      -0.051000
      8 C6          -0.0940    -1.2130     3.3020 c3         1 MUL      -0.057700
      9 C7           1.1670    -2.0440     3.5480 c3         1 MUL      -0.082400
     10 C8           2.1700    -1.8160     2.4150 c3         1 MUL      -0.065400
     11 C9           2.5640    -0.3470     2.3760 c3         1 MUL      -0.058000
     12 C10          2.9140     0.1720     3.7490 c3         1 MUL      -0.074700
     13 C11          3.1960     1.6490     3.6510 c3         1 MUL       0.155100
     14 C12          2.4150     2.5170     4.5500 c3         1 MUL      -0.037800
     15 C13          0.9180     2.4720     4.1720 c3         1 MUL      -0.087400
     16 C14          0.2610     1.0960     4.3580 c3         1 MUL       0.172100
     17 C15         -1.0660     0.7660     2.4300 c3         1 MUL      -0.119100
     18 C16         -1.0730    -1.4240     4.4510 c3         1 MUL      -0.104100
     19 C17          4.1970    -0.5350     4.2320 c3         1 MUL      -0.069100
     20 C18          2.9180     3.9640     4.3720 c3         1 MUL      -0.080100
     21 C19          2.6210     2.1300     5.9900 c2         1 MUL      -0.174200
     22 C20          1.5880     1.9790     6.7820 c2         1 MUL      -0.211000
     23 O3          -1.1240     1.3670     4.7550 os         1 MUL      -0.434900
     24 C21         -1.5440     1.0440     5.9890 c          1 MUL       0.643100
     25 O4          -0.7710     0.5610     6.7830 o          1 MUL      -0.527000
     26 C22         -2.9790     1.2810     6.3830 c3         1 MUL      -0.052300
     27 S1          -3.2330     0.7440     8.0960 ss         1 MUL      -0.270200
     28 C23         -4.9920     1.1370     8.2930 c3         1 MUL      -0.006300
     29 C24         -5.4450     0.7580     9.7050 c3         1 MUL       0.148800
     30 N1          -6.8350     1.1920     9.9060 n3         1 MUL      -0.671600
     31 C25         -7.6820     0.2470     9.1660 c3         1 MUL       0.128300
     32 C26         -9.1170     0.7760     9.1240 c3         1 MUL      -0.092100
     33 C27         -7.1330     1.0010    11.3310 c3         1 MUL       0.128300
     34 C28         -6.5940     2.1890    12.1290 c3         1 MUL      -0.092100
     35 H11A         4.1950    -0.7550     1.0400 hc         1 MUL       0.052200
     36 H12          3.8740     0.9810     1.3110 hc         1 MUL       0.052200
     37 H21          2.5050    -0.9330    -0.5450 hc         1 MUL       0.071700
     38 H22          2.6370     0.8370    -0.6560 hc         1 MUL       0.071700
     39 H4           1.5020     1.5250     2.0860 hc         1 MUL       0.080700
     40 H6          -0.5580    -1.5830     2.3960 hc         1 MUL       0.059700
     41 H71          0.9020    -3.0930     3.5870 hc         1 MUL       0.049700
     42 H72          1.6150    -1.7460     4.4880 hc         1 MUL       0.049700
     43 H81          1.7160    -2.0920     1.4710 hc         1 MUL       0.046700
     44 H82          3.0520    -2.4210     2.5880 hc         1 MUL       0.046700
     45 H10          2.0980    -0.0090     4.4370 hc         1 MUL       0.088700
     46 H11          3.0120     1.9630     2.6310 h1         1 MUL       0.032700
     47 H131         0.8200     2.7600     3.1320 hc         1 MUL       0.058700
     48 H132         0.3890     3.1910     4.7850 hc         1 MUL       0.058700
     49 H14          0.7710     0.5520     5.1430 h1         1 MUL       0.096700
     50 H151        -0.9210     1.7840     2.0890 hc         1 MUL       0.050367
     51 H152        -1.8720     0.7390     3.1540 hc         1 MUL       0.050367
     52 H153        -1.3180     0.1350     1.5860 hc         1 MUL       0.050367
     53 H161        -0.5580    -1.2880     5.3940 hc         1 MUL       0.042700
     54 H162        -1.4760    -2.4280     4.4010 hc         1 MUL       0.042700
     55 H163        -1.8810    -0.7060     4.3730 hc         1 MUL       0.042700
     56 H171         3.9890    -1.5860     4.3980 hc         1 MUL       0.038033
     57 H172         4.9700    -0.4350     3.4790 hc         1 MUL       0.038033
     58 H173         4.5330    -0.0830     5.1570 hc         1 MUL       0.038033
     59 H181         2.9590     4.2050     3.3160 hc         1 MUL       0.039367
     60 H182         3.9080     4.0580     4.8020 hc         1 MUL       0.039367
     61 H183         2.2410     4.6460     4.8720 hc         1 MUL       0.039367
     62 H19          3.6230     1.9760     6.3720 ha         1 MUL       0.140000
     63 H201         1.7370     1.7000     7.8190 ha         1 MUL       0.120000
     64 H202         0.5860     2.1330     6.4010 ha         1 MUL       0.120000
     65 H221        -3.2060     2.3370     6.2980 h1         1 MUL       0.086200
     66 H222        -3.6320     0.7180     5.7280 h1         1 MUL       0.086200
     67 H231        -5.5700     0.5790     7.5660 h1         1 MUL       0.064700
     68 H232        -5.1440     2.1990     8.1380 h1         1 MUL       0.064700
     69 H241        -4.8060     1.2450    10.4320 h1         1 MUL       0.051200
     70 H242        -5.3800    -0.3160     9.8290 h1         1 MUL       0.051200
     71 H251        -7.6660    -0.7160     9.6600 h1         1 MUL       0.037200
     72 H252        -7.3070     0.1410     8.1550 h1         1 MUL       0.037200
     73 H261        -9.5850     0.4760     8.1940 hc         1 MUL       0.040033
     74 H262        -9.1060     1.8570     9.1900 hc         1 MUL       0.040033
     75 H263        -9.6760     0.3690     9.9570 hc         1 MUL       0.040033
     76 H271        -8.2060     0.9310    11.4690 h1         1 MUL       0.037200
     77 H272        -6.6640     0.0890    11.6800 h1         1 MUL       0.037200
     78 H281        -6.5560     3.0650    11.4930 hc         1 MUL       0.040033
     79 H282        -5.5980     1.9600    12.4890 hc         1 MUL       0.040033
     80 H283        -7.2460     2.3840    12.9720 hc         1 MUL       0.040033
     81 HO2          4.9880     2.3550     3.2620 ho         1 MUL       0.394000
@<TRIPOS>BOND
     1     1     5 2
     2     2    13 1
     3     2    81 1
     4     3     4 1
     5     3    11 1
     6     3    35 1
     7     3    36 1
     8     4     5 1
     9     4    37 1
    10     4    38 1
    11     5     6 1
    12     6     7 1
    13     6    11 1
    14     6    39 1
    15     7     8 1
    16     7    16 1
    17     7    17 1
    18     8     9 1
    19     8    18 1
    20     8    40 1
    21     9    10 1
    22     9    41 1
    23     9    42 1
    24    10    11 1
    25    10    43 1
    26    10    44 1
    27    11    12 1
    28    12    13 1
    29    12    19 1
    30    12    45 1
    31    13    14 1
    32    13    46 1
    33    14    15 1
    34    14    20 1
    35    14    21 1
    36    15    16 1
    37    15    47 1
    38    15    48 1
    39    16    23 1
    40    16    49 1
    41    17    50 1
    42    17    51 1
    43    17    52 1
    44    18    53 1
    45    18    54 1
    46    18    55 1
    47    19    56 1
    48    19    57 1
    49    19    58 1
    50    20    59 1
    51    20    60 1
    52    20    61 1
    53    21    22 2
    54    21    62 1
    55    22    63 1
    56    22    64 1
    57    23    24 1
    58    24    25 2
    59    24    26 1
    60    26    27 1
    61    26    65 1
    62    26    66 1
    63    27    28 1
    64    28    29 1
    65    28    67 1
    66    28    68 1
    67    29    30 1
    68    29    69 1
    69    29    70 1
    70    30    31 1
    71    30    33 1
    72    31    32 1
    73    31    71 1
    74    31    72 1
    75    32    73 1
    76    32    74 1
    77    32    75 1
    78    33    34 1
    79    33    76 1
    80    33    77 1
    81    34    78 1
    82    34    79 1
    83    34    80 1
@<TRIPOS>SUBSTRUCTURE
     1 MUL         1 TEMP              0 ****  ****    0 ROOT
