@<TRIPOS>MOLECULE
molecule
   44    43     1     0     0
SMALL
bcc


@<TRIPOS>ATOM
      1 CAR          0.0000     0.0000     0.0000 c3         1 MUN      -0.092100
      2 CAQ          1.5300     0.0000     0.0000 c3         1 MUN      -0.084400
      3 CAP          2.0400     0.0000     1.4420 c3         1 MUN      -0.081400
      4 CAO          3.5700    -0.0000     1.4420 c3         1 MUN      -0.082400
      5 CAN          4.0800     0.0000     2.8840 c3         1 MUN      -0.081400
      6 CAM          5.6100     0.0000     2.8840 c3         1 MUN      -0.082400
      7 CAK          6.1200     0.0000     4.3260 c3         1 MUN      -0.078400
      8 CAH          7.6500     0.0000     4.3260 c3         1 MUN      -0.060200
      9 CAF          8.1530     0.0000     5.7470 c2         1 MUN      -0.077200
     10 CAC          8.9980    -0.9430     6.1540 ce         1 MUN      -0.230200
     11 CAA          9.4880    -0.9430     7.5390 c          1 MUN       0.642300
     12 OAD          9.1210    -0.0810     8.3130 o          1 MUN      -0.561000
     13 OAB         10.3440    -1.9000     7.9520 os         1 MUN      -0.422900
     14 CAE         10.7870    -1.8370     9.3330 c3         1 MUN       0.138400
     15 CAG         11.7460    -2.9950     9.6150 c3         1 MUN       0.149100
     16 OAJ         12.9300    -2.8330     8.8300 oh         1 MUN      -0.591800
     17 CAI         12.1150    -3.0030    11.0990 c3         1 MUN       0.131400
     18 OAL         12.9160    -4.1500    11.3850 oh         1 MUN      -0.605800
     19 H1          -0.3610     0.8840     0.5110 hc         1 MUN       0.032700
     20 H2          -0.3610    -0.8850     0.5110 hc         1 MUN       0.032700
     21 H3          -0.3610     0.0000    -1.0210 hc         1 MUN       0.032700
     22 H4           1.8910    -0.8850    -0.5110 hc         1 MUN       0.039700
     23 H5           1.8910     0.8850    -0.5110 hc         1 MUN       0.039700
     24 H6           1.6790     0.8850     1.9530 hc         1 MUN       0.041700
     25 H7           1.6790    -0.8850     1.9530 hc         1 MUN       0.041700
     26 H8           3.9310     0.8840     0.9310 hc         1 MUN       0.041700
     27 H9           3.9310    -0.8850     0.9320 hc         1 MUN       0.041700
     28 H10          3.7190     0.8850     3.3950 hc         1 MUN       0.042700
     29 H11          3.7190    -0.8840     3.3950 hc         1 MUN       0.042700
     30 H12          5.9720    -0.8840     2.3730 hc         1 MUN       0.042700
     31 H13          5.9720     0.8850     2.3730 hc         1 MUN       0.042700
     32 H14          5.7590     0.8850     4.8370 hc         1 MUN       0.047200
     33 H15          5.7590    -0.8840     4.8370 hc         1 MUN       0.047200
     34 H16          8.0110     0.8850     3.8160 hc         1 MUN       0.055700
     35 H17          8.0110    -0.8840     3.8160 hc         1 MUN       0.055700
     36 H18          7.8260     0.7690     6.4380 ha         1 MUN       0.152000
     37 H20          9.3250    -1.7110     5.4640 ha         1 MUN       0.144000
     38 H22          9.9290    -1.9100     9.9910 h1         1 MUN       0.058700
     39 H23         11.2960    -0.8960     9.5070 h1         1 MUN       0.058700
     40 H24         11.2670    -3.9310     9.3570 h1         1 MUN       0.053700
     41 H25         13.0400    -3.5830     8.2690 ho         1 MUN       0.412000
     42 H26         12.6720    -2.1050    11.3380 h1         1 MUN       0.032200
     43 H27         11.2110    -3.0370    11.6960 h1         1 MUN       0.032200
     44 H28         13.0750    -4.2000    12.3130 ho         1 MUN       0.407000
@<TRIPOS>BOND
     1    18    17 1
     2    17    15 1
     3    16    15 1
     4    15    14 1
     5    14    13 1
     6    13    11 1
     7    12    11 2
     8    11    10 1
     9    10     9 2
    10     9     8 1
    11     8     7 1
    12     7     6 1
    13     6     5 1
    14     5     4 1
    15     4     3 1
    16     3     2 1
    17     1     2 1
    18     1    19 1
    19     1    20 1
    20     1    21 1
    21     2    22 1
    22     2    23 1
    23     3    24 1
    24     3    25 1
    25     4    26 1
    26     4    27 1
    27     5    28 1
    28     5    29 1
    29     6    30 1
    30     6    31 1
    31     7    32 1
    32     7    33 1
    33     8    34 1
    34     8    35 1
    35     9    36 1
    36    10    37 1
    37    14    38 1
    38    14    39 1
    39    15    40 1
    40    16    41 1
    41    17    42 1
    42    17    43 1
    43    18    44 1
@<TRIPOS>SUBSTRUCTURE
     1 MUN         1 TEMP              0 ****  ****    0 ROOT
