@<TRIPOS>MOLECULE
molecule
   42    41     1     0     0
SMALL
bcc


@<TRIPOS>ATOM
      1 C1           0.0000     0.0000     0.0000 c3         1 MUP      -0.258600
      2 C2           1.5300     0.0000     0.0000 c3         1 MUP      -0.043400
      3 C3           2.0420     0.0000     1.4410 c3         1 MUP      -0.080400
      4 C4           3.5700    -0.0010     1.4390 c3         1 MUP      -0.082400
      5 C5           4.0830    -0.0010     2.8800 c3         1 MUP      -0.082400
      6 C6           5.6120    -0.0010     2.8790 c3         1 MUP      -0.082400
      7 C7           6.1240    -0.0010     4.3200 c3         1 MUP      -0.082400
      8 C8           7.6530    -0.0020     4.3190 c3         1 MUP      -0.082400
      9 C9           8.1660    -0.0020     5.7600 c3         1 MUP      -0.082400
     10 C10          9.6960    -0.0020     5.7590 c3         1 MUP      -0.084400
     11 C11         10.2080    -0.0020     7.2010 c3         1 MUP      -0.092100
     12 CM          -2.6340     0.0010    -3.0830 c3         1 MUP       0.145700
     13 O1P         -0.1190    -1.2100    -2.4140 o          1 MUP      -0.820500
     14 O2P         -2.2200     0.0010    -1.7160 os         1 MUP      -0.565200
     15 O3P         -0.0740     1.3130    -2.4770 o          1 MUP      -0.820500
     16 P           -0.6100    -0.0000    -1.7170 p5         1 MUP       1.140600
     17 H11         -0.3610     0.8840     0.5110 hc         1 MUP       0.038700
     18 H12         -0.3610    -0.8840     0.5110 hc         1 MUP       0.038700
     19 H21          1.8900     0.8840    -0.5110 hc         1 MUP       0.055700
     20 H22          1.8900    -0.8840    -0.5110 hc         1 MUP       0.055700
     21 H31          1.6820     0.8850     1.9520 hc         1 MUP       0.028700
     22 H32          1.6810    -0.8840     1.9520 hc         1 MUP       0.028700
     23 H41          3.9310     0.8830     0.9270 hc         1 MUP       0.041200
     24 H42          3.9300    -0.8860     0.9280 hc         1 MUP       0.041200
     25 H51          3.7230     0.8840     3.3920 hc         1 MUP       0.035700
     26 H52          3.7230    -0.8850     3.3910 hc         1 MUP       0.035700
     27 H61          5.9730    -0.8850     2.3680 hc         1 MUP       0.040200
     28 H62          5.9730     0.8840     2.3680 hc         1 MUP       0.040200
     29 H71          5.7630    -0.8850     4.8310 hc         1 MUP       0.038200
     30 H72          5.7640     0.8840     4.8310 hc         1 MUP       0.038200
     31 H81          8.0140     0.8820     3.8080 hc         1 MUP       0.039700
     32 H82          8.0130    -0.8860     3.8080 hc         1 MUP       0.039700
     33 H91          7.8060     0.8830     6.2720 hc         1 MUP       0.039700
     34 H92          7.8060    -0.8860     6.2720 hc         1 MUP       0.039700
     35 H101        10.0560    -0.8860     5.2480 hc         1 MUP       0.039200
     36 H102        10.0560     0.8830     5.2480 hc         1 MUP       0.039200
     37 H111         9.8480    -0.8860     7.7120 hc         1 MUP       0.029700
     38 H112        11.2920    -0.0010     7.1980 hc         1 MUP       0.029700
     39 H113         9.8480     0.8830     7.7120 hc         1 MUP       0.029700
     40 HM1         -3.7160     0.0100    -3.1320 h1         1 MUP       0.029700
     41 HM2         -2.2580    -0.8880    -3.5740 h1         1 MUP       0.029700
     42 HM3         -2.2420     0.8810    -3.5790 h1         1 MUP       0.029700
@<TRIPOS>BOND
     1     1     2 1
     2     1    16 1
     3     1    17 1
     4     1    18 1
     5     2     3 1
     6     2    19 1
     7     2    20 1
     8     3     4 1
     9     3    21 1
    10     3    22 1
    11     4     5 1
    12     4    23 1
    13     4    24 1
    14     5     6 1
    15     5    25 1
    16     5    26 1
    17     6     7 1
    18     6    27 1
    19     6    28 1
    20     7     8 1
    21     7    29 1
    22     7    30 1
    23     8     9 1
    24     8    31 1
    25     8    32 1
    26     9    10 1
    27     9    33 1
    28     9    34 1
    29    10    11 1
    30    10    35 1
    31    10    36 1
    32    11    37 1
    33    11    38 1
    34    11    39 1
    35    12    14 1
    36    12    40 1
    37    12    41 1
    38    12    42 1
    39    13    16 1
    40    14    16 1
    41    15    16 1
@<TRIPOS>SUBSTRUCTURE
     1 MUP         1 TEMP              0 ****  ****    0 ROOT
