@<TRIPOS>MOLECULE
MUP
   42    41     1     0     0
SMALL
bcc


@<TRIPOS>ATOM
      1 C1          0.0260    0.0090   -0.1170 c3        1 MUP     -0.326600
      2 C2          1.5250    0.0070   -0.0410 c3        1 MUP     -0.070400
      3 C3          2.0430    0.0040    1.3790 c3        1 MUP     -0.068400
      4 C4          3.5570    0.0020    1.4150 c3        1 MUP     -0.080400
      5 C5          4.0770   -0.0000    2.8370 c3        1 MUP     -0.078400
      6 C6          5.5900   -0.0020    2.8720 c3        1 MUP     -0.079400
      7 C7          6.1100   -0.0030    4.2930 c3        1 MUP     -0.078400
      8 C8          7.6230   -0.0040    4.3270 c3        1 MUP     -0.079400
      9 C9          8.1430   -0.0040    5.7490 c3        1 MUP     -0.079400
     10 C10         9.6560   -0.0040    5.7840 c3        1 MUP     -0.080400
     11 C11        10.1780   -0.0040    7.1970 c3        1 MUP     -0.091100
     12 CM         -2.6180    0.0070   -2.8970 c3        1 MUP      0.164700
     13 O1P         0.0100   -1.2800   -2.3970 o         1 MUP     -0.865500
     14 O2P        -2.0220    0.0050   -1.6420 os        1 MUP     -0.587200
     15 O3P        -0.0000    1.3100   -2.3900 o         1 MUP     -0.865500
     16 P          -0.3550    0.0120   -1.7690 p5        1 MUP      1.335600
     17 H11        -0.3960    0.9050    0.3950 hc        1 MUP      0.062700
     18 H12        -0.3970   -0.8880    0.3920 hc        1 MUP      0.062700
     19 H21         1.9020   -0.8970   -0.5920 hc        1 MUP      0.055700
     20 H22         1.9040    0.9130   -0.5880 hc        1 MUP      0.055700
     21 H31         1.6550    0.9060    1.9220 hc        1 MUP      0.028700
     22 H32         1.6530   -0.8980    1.9190 hc        1 MUP      0.028700
     23 H41         3.9450    0.9050    0.8740 hc        1 MUP      0.038700
     24 H42         3.9430   -0.9000    0.8720 hc        1 MUP      0.038700
     25 H51         3.6870   -0.9030    3.3780 hc        1 MUP      0.034700
     26 H52         3.6890    0.9020    3.3800 hc        1 MUP      0.034700
     27 H61         5.9790    0.9000    2.3300 hc        1 MUP      0.038700
     28 H62         5.9770   -0.9040    2.3290 hc        1 MUP      0.038700
     29 H71         5.7220    0.8990    4.8360 hc        1 MUP      0.036700
     30 H72         5.7210   -0.9060    4.8350 hc        1 MUP      0.036700
     31 H81         8.0110    0.8980    3.7850 hc        1 MUP      0.038700
     32 H82         8.0100   -0.9060    3.7850 hc        1 MUP      0.038700
     33 H91         7.7550   -0.9060    6.2910 hc        1 MUP      0.037700
     34 H92         7.7550    0.8980    6.2910 hc        1 MUP      0.037700
     35 H101       10.0420    0.8980    5.2390 hc        1 MUP      0.037700
     36 H102       10.0410   -0.9070    5.2400 hc        1 MUP      0.037700
     37 H111       11.2950   -0.0040    7.2000 hc        1 MUP      0.029367
     38 H112        9.8240    0.9010    7.7480 hc        1 MUP      0.029367
     39 H113        9.8240   -0.9090    7.7480 hc        1 MUP      0.029367
     40 HM1        -3.7300    0.0020   -2.7620 h1        1 MUP      0.006700
     41 HM2        -2.2960   -0.9060   -3.4650 h1        1 MUP      0.006700
     42 HM3        -2.3040    0.9250   -3.4600 h1        1 MUP      0.006700
@<TRIPOS>BOND
     1    1    2 1   
     2    1   16 1   
     3    1   17 1   
     4    1   18 1   
     5    2    3 1   
     6    2   19 1   
     7    2   20 1   
     8    3    4 1   
     9    3   21 1   
    10    3   22 1   
    11    4    5 1   
    12    4   23 1   
    13    4   24 1   
    14    5    6 1   
    15    5   25 1   
    16    5   26 1   
    17    6    7 1   
    18    6   27 1   
    19    6   28 1   
    20    7    8 1   
    21    7   29 1   
    22    7   30 1   
    23    8    9 1   
    24    8   31 1   
    25    8   32 1   
    26    9   10 1   
    27    9   33 1   
    28    9   34 1   
    29   10   11 1   
    30   10   35 1   
    31   10   36 1   
    32   11   37 1   
    33   11   38 1   
    34   11   39 1   
    35   12   14 1   
    36   12   40 1   
    37   12   41 1   
    38   12   42 1   
    39   13   16 1   
    40   14   16 1   
    41   15   16 1   
@<TRIPOS>SUBSTRUCTURE
     1 MUP         1 TEMP              0 ****  ****    0 ROOT
