@<TRIPOS>MOLECULE
MUR
   34    34     1     0     0
SMALL
bcc


@<TRIPOS>ATOM
      1 C1           0.0000     0.0000     0.0000 c3         1 MUR       0.393900
      2 O1          -0.4750    -0.0300    -1.3470 oh         1 MUR      -0.601800
      3 C2           1.5310     0.0000     0.0000 c3         1 MUR      -0.142500
      4 N2           2.0240    -1.1970    -0.6910 nz         1 MUR       0.055400
      5 C3           2.0290     0.0000     1.4470 c3         1 MUR       0.123100
      6 O3           3.4500     0.1530     1.4650 os         1 MUR      -0.324600
      7 C4           1.3770     1.1670     2.1960 c3         1 MUR       0.165100
      8 O4           1.7080     1.1000     3.5840 oh         1 MUR      -0.563800
      9 C5          -0.1410     1.0800     2.0270 c3         1 MUR       0.142100
     10 O5          -0.4840     1.1750     0.6470 os         1 MUR      -0.365600
     11 C6          -0.8040     2.2260     2.7950 c3         1 MUR       0.227400
     12 O6          -2.2220     2.1400     2.6480 oh         1 MUR      -0.588800
     13 C7           4.0090    -1.1600     1.4260 c3         1 MUR       0.035100
     14 C8           5.3430    -1.1190     0.7280 c          1 MUR       0.945600
     15 O8           6.0570    -2.2460     0.5750 o          1 MUR      -0.846300
     16 O9           5.7720    -0.0710     0.3070 o          1 MUR      -0.846300
     17 C9           4.1960    -1.6770     2.8540 c3         1 MUR      -0.011100
     18 H1          -0.3570    -0.8740     0.5320 h2         1 MUR       0.001700
     19 HO1         -1.4060    -0.1800    -1.3490 ho         1 MUR       0.436000
     20 H2           1.8910     0.8890    -0.5040 hx         1 MUR       0.122700
     21 HN21         3.0090    -1.1120    -0.8450 hn         1 MUR       0.240800
     22 HN22         1.8430    -2.0050    -0.1290 hn         1 MUR       0.240800
     23 H3           1.7550    -0.9330     1.9240 h1         1 MUR       0.040700
     24 H4           1.7310     2.1020     1.7810 h1         1 MUR       0.035700
     25 HO4          2.2010     1.8660     3.8270 ho         1 MUR       0.413000
     26 H5          -0.4900     0.1320     2.4170 h1         1 MUR       0.030700
     27 H61         -0.5450     2.1540     3.8450 h1         1 MUR       0.005200
     28 H62         -0.4570     3.1730     2.4020 h1         1 MUR       0.005200
     29 HO6         -2.6340     2.8040     3.1760 ho         1 MUR       0.400000
     30 H7           3.3400    -1.8210     0.8870 h1         1 MUR      -0.063300
     31 H91          3.8890    -0.9140     3.5580 hc         1 MUR       0.017700
     32 H92          3.5930    -2.5660     2.9980 hc         1 MUR       0.017700
     33 H93          5.2400    -1.9190     3.0160 hc         1 MUR       0.017700
     34 H23          1.5490    -1.2960    -1.5670 hn         1 MUR       0.240800
@<TRIPOS>BOND
     1     1     2 1   
     2     1     3 1   
     3     1    10 1   
     4     1    18 1   
     5     2    19 1   
     6     3     4 1   
     7     3     5 1   
     8     3    20 1   
     9     4    21 1   
    10     4    22 1   
    11     4    34 1   
    12     5     6 1   
    13     5     7 1   
    14     5    23 1   
    15     6    13 1   
    16     7     8 1   
    17     7     9 1   
    18     7    24 1   
    19     8    25 1   
    20     9    10 1   
    21     9    11 1   
    22     9    26 1   
    23    11    12 1   
    24    11    27 1   
    25    11    28 1   
    26    12    29 1   
    27    13    14 1   
    28    13    17 1   
    29    13    30 1   
    30    14    15 1   
    31    14    16 1   
    32    17    31 1   
    33    17    32 1   
    34    17    33 1   
@<TRIPOS>SUBSTRUCTURE
     1 MUR         1 TEMP              0 ****  ****    0 ROOT
