@<TRIPOS>MOLECULE
MUS
   58    60     1     0     0
SMALL
bcc


@<TRIPOS>ATOM
      1 O16         2.2170   -0.4800   -2.4420 oh        1 MUS     -0.602800
      2 C16         2.7030    0.5190   -1.5680 c3        1 MUS      0.094400
      3 C15         2.9300   -0.0800   -0.1770 c3        1 MUS      0.073100
      4 O15         3.8100   -1.1980   -0.2450 oh        1 MUS     -0.654800
      5 C14         3.5850    0.9570    0.7580 c3        1 MUS      0.142100
      6 O14         2.7830    2.1130    0.8190 oh        1 MUS     -0.580800
      7 C13         3.8430    0.3110    2.1420 c3        1 MUS      0.124100
      8 O13         3.1510    1.0960    3.0870 os        1 MUS     -0.440600
      9 C12         5.3750    0.1790    2.3990 c3        1 MUS      0.115500
     10 N12         5.7530   -1.2420    2.0470 n4        1 MUS     -0.689800
     11 C17         7.2310   -1.4720    2.0140 c         1 MUS      0.566100
     12 C18         7.8700   -1.9720    3.2650 c3        1 MUS     -0.189100
     13 O17         7.7910   -1.2350    0.9490 o         1 MUS     -0.459100
     14 C11         5.8830    0.5070    3.8350 c3        1 MUS      0.130100
     15 O11         7.1960    1.0250    3.7170 oh        1 MUS     -0.620800
     16 C10         4.9520    1.4170    4.6120 c3        1 MUS     -0.119400
     17 C9          3.5310    0.8600    4.4520 c3        1 MUS      0.222600
     18 C19         3.4650   -0.6320    4.9350 c         1 MUS      0.912600
     19 O19         3.9080   -1.5170    4.1340 o         1 MUS     -0.802800
     20 O20         3.0460   -0.8560    6.0840 o         1 MUS     -0.802800
     21 O9          2.6820    1.7770    5.1180 os        1 MUS     -0.298900
     22 C7          1.3340    1.4980    5.2180 ca        1 MUS      0.210100
     23 C6          0.6770    0.4360    4.5670 ca        1 MUS     -0.195000
     24 C8          0.6240    2.4100    6.0110 ca        1 MUS     -0.188000
     25 C8A        -0.7610    2.2330    6.1420 ca        1 MUS      0.180100
     26 C4A        -1.4400    1.1680    5.5100 ca        1 MUS     -0.187800
     27 C5         -0.6880    0.2760    4.7260 ca        1 MUS     -0.048000
     28 O1         -1.4040    3.1690    6.9240 os        1 MUS     -0.325200
     29 C2         -2.7820    3.0520    7.1060 c         1 MUS      0.724800
     30 O2         -3.2090    3.9620    7.8180 o         1 MUS     -0.579500
     31 C3         -3.5040    1.9580    6.4830 cc        1 MUS     -0.281200
     32 C4         -2.8680    1.0440    5.7110 cd        1 MUS      0.061600
     33 CM4        -3.5970   -0.0780    5.0770 c3        1 MUS     -0.072900
     34 H16         1.2860   -0.6200   -2.2350 ho        1 MUS      0.407000
     35 H161        3.6780    0.8460   -2.0200 h1        1 MUS      0.074200
     36 H162        2.0060    1.3930   -1.4950 h1        1 MUS      0.074200
     37 H15         1.9500   -0.4270    0.2560 h1        1 MUS      0.055700
     38 H2          3.6100   -1.6660   -1.0680 ho        1 MUS      0.442000
     39 H14         4.5450    1.3120    0.2860 h1        1 MUS      0.074700
     40 H1          2.0820    1.9750    1.4730 ho        1 MUS      0.435000
     41 H13         3.3620   -0.7180    2.1690 h1        1 MUS      0.104700
     42 H12         5.9420    0.8480    1.6830 hx        1 MUS      0.094700
     43 H4          5.3500   -1.4550    1.1220 hn        1 MUS      0.493800
     44 H181        8.1800   -1.0810    3.8800 hc        1 MUS      0.110367
     45 H182        7.1860   -2.6110    3.8770 hc        1 MUS      0.110367
     46 H183        8.7840   -2.5570    2.9930 hc        1 MUS      0.110367
     47 H11         6.0040   -0.4490    4.4340 h1        1 MUS      0.112700
     48 H7          7.1420    1.9860    3.6330 ho        1 MUS      0.424000
     49 H101        5.2360    1.4210    5.6960 hc        1 MUS      0.085700
     50 H102        4.9920    2.4690    4.2300 hc        1 MUS      0.085700
     51 H6          1.2600   -0.2780    3.9650 ha        1 MUS      0.158000
     52 H8          1.1340    3.2360    6.5240 ha        1 MUS      0.171000
     53 H5         -1.1960   -0.5680    4.2340 ha        1 MUS      0.135000
     54 H3         -4.5840    1.9250    6.6830 ha        1 MUS      0.164000
     55 HM41       -3.4820   -0.0330    3.9650 hc        1 MUS      0.056033
     56 HM42       -4.6870   -0.0430    5.3220 hc        1 MUS      0.056033
     57 HM43       -3.1840   -1.0550    5.4360 hc        1 MUS      0.056033
     58 H122        5.2960   -1.8500    2.7650 hn        1 MUS      0.493800
@<TRIPOS>BOND
     1    1    2 1
     2    1   34 1
     3    2    3 1
     4    2   35 1
     5    2   36 1
     6    3    4 1
     7    3    5 1
     8    3   37 1
     9    4   38 1
    10    5    6 1
    11    5    7 1
    12    5   39 1
    13    6   40 1
    14    7    8 1
    15    7    9 1
    16    7   41 1
    17    8   17 1
    18    9   10 1
    19    9   14 1
    20    9   42 1
    21   10   11 1
    22   10   43 1
    23   10   58 1
    24   11   12 1
    25   11   13 2
    26   12   44 1
    27   12   45 1
    28   12   46 1
    29   14   15 1
    30   14   16 1
    31   14   47 1
    32   15   48 1
    33   16   17 1
    34   16   49 1
    35   16   50 1
    36   17   18 1
    37   17   21 1
    38   18   19 1
    39   18   20 1
    40   21   22 1
    41   22   23 ar
    42   22   24 ar
    43   23   27 ar
    44   23   51 1
    45   24   25 ar
    46   24   52 1
    47   25   26 ar
    48   25   28 1
    49   26   27 ar
    50   26   32 1
    51   27   53 1
    52   28   29 1
    53   29   30 2
    54   29   31 1
    55   31   32 2
    56   31   54 1
    57   32   33 1
    58   33   55 1
    59   33   56 1
    60   33   57 1
@<TRIPOS>SUBSTRUCTURE
     1 MUS         1 TEMP              0 ****  ****    0 ROOT
