@<TRIPOS>MOLECULE
molecule
   71    73     1     0     0
SMALL
bcc


@<TRIPOS>ATOM
      1 O10          0.0000     0.0000     0.0000 o          1 MUU      -0.636800
      2 S8           1.4210     0.0000     0.0000 sy         1 MUU       1.422200
      3 O9           2.1980     0.0000     1.1900 o          1 MUU      -0.636800
      4 C5           1.9190    -1.4180    -0.9190 ca         1 MUU      -0.276500
      5 C6           3.1660    -1.9730    -0.7100 ca         1 MUU      -0.054000
      6 C7           3.5590    -3.0900    -1.4340 ca         1 MUU       0.119100
      7 O19          4.7850    -3.6380    -1.2290 os         1 MUU      -0.325900
      8 C18          5.1210    -4.7870    -2.0100 c3         1 MUU       0.127700
      9 C2           2.6960    -3.6460    -2.3670 ca         1 MUU      -0.170000
     10 C3           1.4500    -3.0870    -2.5730 ca         1 MUU      -0.112000
     11 C4           1.0590    -1.9770    -1.8460 ca         1 MUU      -0.072000
     12 N11          1.8890     1.3330    -0.8640 n3         1 MUU      -0.809500
     13 C12          3.2110     1.9240    -0.6410 c3         1 MUU       0.258800
     14 C13          4.1970     1.3650    -1.6680 cx         1 MUU      -0.171700
     15 C15          5.3700     0.5350    -1.1420 cx         1 MUU      -0.134400
     16 C14          5.6130     1.9470    -1.6780 cx         1 MUU      -0.134400
     17 C16          0.9790     1.9230    -1.8490 c3         1 MUU       0.237800
     18 C17          0.1980     3.0680    -1.2030 c3         1 MUU       0.111100
     19 O18          1.0990     4.1180    -0.8450 oh         1 MUU      -0.605800
     20 C19         -0.8390     3.6020    -2.1930 c3         1 MUU       0.105700
     21 C32         -0.1240     4.2270    -3.3920 c3         1 MUU      -0.047100
     22 C38         -1.1410     4.6420    -4.4240 ca         1 MUU      -0.066300
     23 C33         -1.5310     3.7530    -5.4080 ca         1 MUU      -0.116500
     24 C34         -2.4630     4.1330    -6.3540 ca         1 MUU      -0.122000
     25 C35         -3.0070     5.4030    -6.3160 ca         1 MUU      -0.128000
     26 C36         -2.6180     6.2930    -5.3310 ca         1 MUU      -0.122000
     27 C37         -1.6880     5.9100    -4.3830 ca         1 MUU      -0.116500
     28 N20         -1.6660     4.6160    -1.5360 ns         1 MUU      -0.581900
     29 C21         -2.9120     4.8640    -1.9840 c          1 MUU       0.655100
     30 O22         -3.3480     4.2490    -2.9340 o          1 MUU      -0.603100
     31 C23         -3.7640     5.9080    -1.3080 c3         1 MUU      -0.140400
     32 C24         -5.1210     5.9910    -2.0080 c3         1 MUU      -0.142400
     33 C25         -5.9720     7.0340    -1.3310 c          1 MUU       0.654100
     34 O26         -5.5370     7.6500    -0.3820 o          1 MUU      -0.617100
     35 N27         -7.2190     7.2830    -1.7810 ns         1 MUU      -0.590900
     36 C28         -8.0460     8.2970    -1.1220 c3         1 MUU       0.103300
     37 H6           3.8110    -1.5790     0.0670 ha         1 MUU       0.165000
     38 H181         5.0920    -4.5300    -3.0620 h1         1 MUU       0.043033
     39 H182         6.1170    -5.1220    -1.7480 h1         1 MUU       0.043033
     40 H183         4.4090    -5.5790    -1.8120 h1         1 MUU       0.043033
     41 H2           3.0000    -4.5170    -2.9350 ha         1 MUU       0.138000
     42 H3           0.7750    -3.5220    -3.3000 ha         1 MUU       0.137000
     43 H4           0.0810    -1.5400    -2.0090 ha         1 MUU       0.149000
     44 H121         3.5520     1.6800     0.3580 h1         1 MUU       0.077200
     45 H122         3.1480     3.0000    -0.7480 h1         1 MUU       0.077200
     46 H13          3.8260     1.0600    -2.6390 hc         1 MUU       0.085700
     47 H151         5.4220     0.4290    -0.0650 hc         1 MUU       0.076950
     48 H152         5.6980    -0.2720    -1.7860 hc         1 MUU       0.076950
     49 H141         5.8120     2.7040    -0.9290 hc         1 MUU       0.076950
     50 H142         6.0880     2.0030    -2.6500 hc         1 MUU       0.076950
     51 H161         1.5510     2.3040    -2.6860 h1         1 MUU       0.066700
     52 H162         0.2870     1.1670    -2.2000 h1         1 MUU       0.066700
     53 H17         -0.3050     2.7050    -0.3140 h1         1 MUU       0.059700
     54 HO18         0.9150     4.4040     0.0350 ho         1 MUU       0.404000
     55 H19         -1.4680     2.7870    -2.5320 h1         1 MUU       0.089700
     56 H321         0.5560     3.5030    -3.8250 hc         1 MUU       0.058700
     57 H322         0.4350     5.0960    -3.0660 hc         1 MUU       0.058700
     58 H33         -1.1050     2.7570    -5.4370 ha         1 MUU       0.122500
     59 H34         -2.7690     3.4360    -7.1250 ha         1 MUU       0.123500
     60 H35         -3.7370     5.7020    -7.0590 ha         1 MUU       0.123000
     61 H36         -3.0460     7.2880    -5.3000 ha         1 MUU       0.123500
     62 H37         -1.3830     6.6070    -3.6110 ha         1 MUU       0.122500
     63 HN20        -1.3180     5.1010    -0.7330 hn         1 MUU       0.312500
     64 H231        -3.9100     5.6360    -0.2690 hc         1 MUU       0.074700
     65 H232        -3.2690     6.8700    -1.3630 hc         1 MUU       0.074700
     66 H241        -5.6160     5.0290    -1.9520 hc         1 MUU       0.077200
     67 H242        -4.9760     6.2630    -3.0470 hc         1 MUU       0.077200
     68 HN27        -7.5790     6.7750    -2.5640 hn         1 MUU       0.314500
     69 H281        -7.5500     9.2590    -1.1770 h1         1 MUU       0.041367
     70 H282        -9.0070     8.3570    -1.6190 h1         1 MUU       0.041367
     71 H283        -8.1920     8.0250    -0.0840 h1         1 MUU       0.041367
@<TRIPOS>BOND
     1     1     2 2
     2     2     3 2
     3     2    12 1
     4     2     4 1
     5     4     5 ar
     6     4    11 ar
     7     5     6 ar
     8     5    37 1
     9     6     7 1
    10     6     9 ar
    11     7     8 1
    12     8    38 1
    13     8    39 1
    14     8    40 1
    15     9    10 ar
    16     9    41 1
    17    10    11 ar
    18    10    42 1
    19    11    43 1
    20    12    17 1
    21    12    13 1
    22    13    14 1
    23    13    44 1
    24    13    45 1
    25    14    16 1
    26    14    15 1
    27    14    46 1
    28    15    16 1
    29    15    47 1
    30    15    48 1
    31    16    49 1
    32    16    50 1
    33    17    18 1
    34    17    51 1
    35    17    52 1
    36    18    20 1
    37    18    19 1
    38    18    53 1
    39    19    54 1
    40    20    28 1
    41    20    21 1
    42    20    55 1
    43    21    22 1
    44    21    56 1
    45    21    57 1
    46    22    27 ar
    47    22    23 ar
    48    23    24 ar
    49    23    58 1
    50    24    25 ar
    51    24    59 1
    52    25    26 ar
    53    25    60 1
    54    26    27 ar
    55    26    61 1
    56    27    62 1
    57    28    29 1
    58    28    63 1
    59    29    31 1
    60    29    30 2
    61    31    32 1
    62    31    64 1
    63    31    65 1
    64    32    33 1
    65    32    66 1
    66    32    67 1
    67    33    35 1
    68    33    34 2
    69    35    36 1
    70    35    68 1
    71    36    69 1
    72    36    70 1
    73    36    71 1
@<TRIPOS>SUBSTRUCTURE
     1 MUU         1 TEMP              0 ****  ****    0 ROOT
