@<TRIPOS>MOLECULE
MUV
   67    68     1     0     0
SMALL
bcc


@<TRIPOS>ATOM
      1 O26         1.2640   -1.6150    0.1350 o         1 MUV     -0.379100
      2 C25         1.7260   -0.4900    0.0300 c         1 MUV      0.535100
      3 N27         2.1590    0.1780    1.3120 n4        1 MUV     -0.667800
      4 C28         1.0360    0.9100    1.9560 c3        1 MUV      0.077100
      5 C24         1.9190    0.2920   -1.2410 c3        1 MUV     -0.152400
      6 C23         1.3860   -0.5060   -2.4240 c3        1 MUV     -0.166400
      7 C21         1.6180    0.2360   -3.7120 c         1 MUV      0.554100
      8 O22         2.2190    1.2920   -3.8500 o         1 MUV     -0.407100
      9 N20         1.0330   -0.4000   -4.9430 n4        1 MUV     -0.666800
     10 C19         1.9540   -0.4020   -6.1520 c3        1 MUV      0.141500
     11 C32         2.5910   -1.7870   -6.3360 c3        1 MUV     -0.062100
     12 C38         3.1470   -2.3590   -5.0810 ca        1 MUV     -0.166300
     13 C37         2.3930   -3.2740   -4.3320 ca        1 MUV     -0.142000
     14 C36         2.9490   -3.8880   -3.2110 ca        1 MUV     -0.119500
     15 C35         4.2630   -3.6010   -2.8340 ca        1 MUV     -0.107000
     16 C34         5.0170   -2.6920   -3.5770 ca        1 MUV     -0.119500
     17 C33         4.4620   -2.0710   -4.6970 ca        1 MUV     -0.142000
     18 C17         1.1570    0.0210   -7.4280 c3        1 MUV      0.124100
     19 O18        -0.0060   -0.7870   -7.4200 oh        1 MUV     -0.631800
     20 C16         2.0250   -0.2170   -8.6790 c3        1 MUV      0.095800
     21 N11         1.6700    0.5490   -9.8750 n3        1 MUV     -0.901200
     22 C12         0.3820    0.1970  -10.4840 c3        1 MUV      0.142800
     23 C13        -0.8060    0.9680   -9.9640 cx        1 MUV     -0.221700
     24 C14        -1.9080    1.3130  -10.9380 cx        1 MUV     -0.108400
     25 C15        -2.1410    0.2610   -9.9030 cx        1 MUV     -0.108400
     26 S8          2.2330    2.9700   -9.6560 s4        1 MUV      1.599200
     27 O9          1.2110    3.1810   -8.7860 o         1 MUV     -0.436400
     28 O10         3.4480    2.5640   -9.2130 o         1 MUV     -0.436400
     29 C5          2.0700    3.4570  -11.0970 cc        1 MUV     -0.330700
     30 O4          3.1660    3.3000  -12.0030 os        1 MUV     -0.279800
     31 C3          2.8080    3.8740  -13.1860 cc        1 MUV      0.480600
     32 C2          1.5040    4.4010  -13.1140 cd        1 MUV     -0.284300
     33 C1          1.0360    4.1400  -11.8120 cd        1 MUV      0.045700
     34 HN27        2.9340    0.8260    1.1280 hn        1 MUV      0.478300
     35 H281        1.3970    1.3560    2.9260 hx        1 MUV      0.125033
     36 H282        0.6800    1.7300    1.2780 hx        1 MUV      0.125033
     37 H283        0.1960    0.1930    2.1700 hx        1 MUV      0.125033
     38 H241        1.3830    1.2800   -1.1660 hc        1 MUV      0.125700
     39 H242        3.0150    0.5120   -1.3890 hc        1 MUV      0.125700
     40 H231        0.2870   -0.7100   -2.2840 hc        1 MUV      0.134700
     41 H232        1.9080   -1.5120   -2.4870 hc        1 MUV      0.134700
     42 HN20        0.7830   -1.3810   -4.7390 hn        1 MUV      0.478800
     43 H19         2.7550    0.3750   -5.9680 hx        1 MUV      0.122700
     44 H321        3.4210   -1.6770   -7.0890 hc        1 MUV      0.103200
     45 H322        1.8270   -2.4870   -6.7770 hc        1 MUV      0.103200
     46 H37         1.3880   -3.5740   -4.6700 ha        1 MUV      0.144500
     47 H36         2.3660   -4.6370   -2.6490 ha        1 MUV      0.168000
     48 H35         4.7160   -4.1230   -1.9750 ha        1 MUV      0.169000
     49 H34         6.0670   -2.4910   -3.3030 ha        1 MUV      0.168000
     50 H33         5.0780   -1.3850   -5.3000 ha        1 MUV      0.144500
     51 H17         0.8670    1.1100   -7.3460 h1        1 MUV      0.074700
     52 HO18       -0.5330   -0.5840   -8.2100 ho        1 MUV      0.464000
     53 H161        1.9960   -1.3270   -8.8970 h1        1 MUV      0.090200
     54 H162        3.0890    0.0710   -8.4270 h1        1 MUV      0.090200
     55 H121        0.4720    0.3870  -11.5950 h1        1 MUV      0.078200
     56 H122        0.1820   -0.9110  -10.3650 h1        1 MUV      0.078200
     57 H13        -0.5800    1.7050   -9.1660 hc        1 MUV      0.089700
     58 H141       -1.8070    1.0080  -11.9970 hc        1 MUV      0.094200
     59 H142       -2.4190    2.2890  -10.8380 hc        1 MUV      0.094200
     60 H151       -2.8200    0.4790   -9.0580 hc        1 MUV      0.094200
     61 H152       -2.2070   -0.7970  -10.2220 hc        1 MUV      0.094200
     62 H3          3.5750    3.8340  -13.9760 h4        1 MUV      0.124100
     63 H2          0.9680    4.9190  -13.9160 ha        1 MUV      0.232000
     64 H1          0.0560    4.4190  -11.4050 ha        1 MUV      0.212000
     65 H272        2.4910   -0.5510    1.9670 hn        1 MUV      0.478300
     66 H202        0.1680    0.1010   -5.1970 hn        1 MUV      0.478800
     67 H111        2.3870    0.3240  -10.5570 hn        1 MUV      0.400800
@<TRIPOS>BOND
     1    1    2 2   
     2    2    3 1   
     3    2    5 1   
     4    3    4 1   
     5    3   34 1   
     6    3   65 1   
     7    4   35 1   
     8    4   36 1   
     9    4   37 1   
    10    5    6 1   
    11    5   38 1   
    12    5   39 1   
    13    6    7 1   
    14    6   40 1   
    15    6   41 1   
    16    7    8 2   
    17    7    9 1   
    18    9   10 1   
    19    9   42 1   
    20    9   66 1   
    21   10   11 1   
    22   10   18 1   
    23   10   43 1   
    24   11   12 1   
    25   11   44 1   
    26   11   45 1   
    27   12   13 ar  
    28   12   17 ar  
    29   13   14 ar  
    30   13   46 1   
    31   14   15 ar  
    32   14   47 1   
    33   15   16 ar  
    34   15   48 1   
    35   16   17 ar  
    36   16   49 1   
    37   17   50 1   
    38   18   19 1   
    39   18   20 1   
    40   18   51 1   
    41   19   52 1   
    42   20   21 1   
    43   20   53 1   
    44   20   54 1   
    45   21   22 1   
    46   21   67 1   
    47   22   23 1   
    48   22   55 1   
    49   22   56 1   
    50   23   24 1   
    51   23   25 1   
    52   23   57 1   
    53   24   25 1   
    54   24   58 1   
    55   24   59 1   
    56   25   60 1   
    57   25   61 1   
    58   26   27 1   
    59   26   28 1   
    60   26   29 1   
    61   29   30 1   
    62   29   33 2   
    63   30   31 1   
    64   31   32 2   
    65   31   62 1   
    66   32   33 1   
    67   32   63 1   
    68   33   64 1   
@<TRIPOS>SUBSTRUCTURE
     1 MUV         1 TEMP              0 ****  ****    0 ROOT
