@<TRIPOS>MOLECULE
molecule
   92    94     1     0     0
SMALL
bcc


@<TRIPOS>ATOM
      1 O9           0.0000     0.0000     0.0000 o          1 MUW      -0.617800
      2 S7           1.4200     0.0000     0.0000 sy         1 MUW       1.411200
      3 O8           2.1980     0.0000     1.1890 o          1 MUW      -0.617800
      4 C1           1.9170    -1.4190    -0.9190 ca         1 MUW      -0.249500
      5 C2           3.1650    -1.9760    -0.7090 ca         1 MUW      -0.023500
      6 C3           3.5550    -3.0890    -1.4310 ca         1 MUW      -0.118000
      7 C4           2.6980    -3.6460    -2.3610 ca         1 MUW      -0.099300
      8 C15          3.1220    -4.8590    -3.1460 c3         1 MUW       0.197100
      9 N45          2.7300    -6.0750    -2.4210 nz         1 MUW      -1.143600
     10 C5           1.4490    -3.0900    -2.5690 ca         1 MUW      -0.118000
     11 C6           1.0580    -1.9790    -1.8450 ca         1 MUW      -0.023500
     12 N10          1.8890     1.3320    -0.8650 n3         1 MUW      -0.799500
     13 C11          0.9900     1.9070    -1.8700 c3         1 MUW       0.235800
     14 C12         -0.2720     2.4330    -1.1830 c3         1 MUW      -0.114700
     15 C13          0.1150     3.4850    -0.1420 c3         1 MUW      -0.087100
     16 C14         -1.1950     3.0630    -2.2270 c3         1 MUW      -0.087100
     17 C16          3.2020     1.9370    -0.6250 c3         1 MUW       0.231500
     18 C22          3.0230     3.4060    -0.2360 c3         1 MUW       0.125400
     19 O23          2.5040     4.1340    -1.3510 oh         1 MUW      -0.609800
     20 C17          4.0450     1.8450    -1.8990 c3         1 MUW      -0.095400
     21 C18          4.3280     0.3760    -2.2180 c3         1 MUW      -0.086400
     22 C19          5.1720     0.2840    -3.4910 c3         1 MUW      -0.098400
     23 C20          5.4550    -1.1850    -3.8110 c3         1 MUW       0.114000
     24 N21          6.2620    -1.2720    -5.0300 ns         1 MUW      -0.579900
     25 C39          6.6350    -2.4770    -5.5050 c          1 MUW       0.658100
     26 O40          6.3020    -3.4880    -4.9250 o          1 MUW      -0.628100
     27 C37          7.4660    -2.5680    -6.7590 c3         1 MUW       0.082700
     28 N38          8.1310    -3.8720    -6.8120 ns         1 MUW      -0.550900
     29 C41          7.3970    -5.0020    -6.8250 c          1 MUW       0.767100
     30 O42          8.0090    -6.2010    -6.8730 os         1 MUW      -0.431900
     31 C44          7.1560    -7.3760    -6.8850 c3         1 MUW       0.164700
     32 O43          6.1850    -4.9400    -6.7940 o          1 MUW      -0.623000
     33 C30          6.5620    -2.4070    -7.9840 c3         1 MUW       0.006900
     34 C24          5.8780    -1.0650    -7.9290 ca         1 MUW      -0.081300
     35 C25          4.4980    -0.9900    -7.9890 ca         1 MUW      -0.127500
     36 C26          3.8710     0.2410    -7.9400 ca         1 MUW      -0.121750
     37 C27          4.6220     1.3960    -7.8310 ca         1 MUW      -0.122000
     38 C28          6.0020     1.3200    -7.7700 ca         1 MUW      -0.121750
     39 C29          6.6290     0.0900    -7.8150 ca         1 MUW      -0.127500
     40 C31          7.3930    -2.4970    -9.2380 ca         1 MUW      -0.081300
     41 C32          8.5260    -1.7170    -9.3740 ca         1 MUW      -0.127500
     42 C33          9.2880    -1.8000   -10.5250 ca         1 MUW      -0.121750
     43 C34          8.9170    -2.6630   -11.5380 ca         1 MUW      -0.122000
     44 C35          7.7840    -3.4440   -11.4020 ca         1 MUW      -0.121750
     45 C36          7.0250    -3.3640   -10.2500 ca         1 MUW      -0.127500
     46 H2           3.8080    -1.5840     0.0700 ha         1 MUW       0.177000
     47 H3           4.5130    -3.5550    -1.2310 ha         1 MUW       0.139000
     48 H151         2.6410    -4.8470    -4.1170 hx         1 MUW       0.105200
     49 H152         4.1970    -4.8470    -3.2760 hx         1 MUW       0.105200
     50 H451         3.7210    -6.1120    -2.2880 hn         1 MUW       0.540800
     51 H452         2.1650    -6.1790    -3.2400 hn         1 MUW       0.540800
     52 H5           0.7750    -3.5270    -3.2960 ha         1 MUW       0.139000
     53 H6          -0.0080    -1.8740    -2.0100 ha         1 MUW       0.177000
     54 H111         0.7180     1.1440    -2.5890 h1         1 MUW       0.059200
     55 H112         1.4910     2.7210    -2.3790 h1         1 MUW       0.059200
     56 H12         -0.7850     1.6140    -0.6940 hc         1 MUW       0.093700
     57 H131         0.6770     4.2780    -0.6210 hc         1 MUW       0.038033
     58 H132        -0.7810     3.8980     0.3050 hc         1 MUW       0.038033
     59 H133         0.7240     3.0260     0.6270 hc         1 MUW       0.038033
     60 H141        -1.4290     2.3310    -2.9910 hc         1 MUW       0.038033
     61 H142        -2.1100     3.3910    -1.7490 hc         1 MUW       0.038033
     62 H143        -0.7000     3.9130    -2.6820 hc         1 MUW       0.038033
     63 H16          3.7010     1.4090     0.1780 h1         1 MUW       0.083700
     64 H221         3.9810     3.8220     0.0520 h1         1 MUW       0.050700
     65 H222         2.3330     3.4780     0.5960 h1         1 MUW       0.050700
     66 HO23         2.9420     4.9660    -1.4140 ho         1 MUW       0.407000
     67 H171         4.9810     2.3690    -1.7510 hc         1 MUW       0.062200
     68 H172         3.5050     2.2950    -2.7230 hc         1 MUW       0.062200
     69 H181         4.8670    -0.0750    -1.3940 hc         1 MUW       0.038200
     70 H182         3.3910    -0.1490    -2.3660 hc         1 MUW       0.038200
     71 H191         6.1080     0.8090    -3.3430 hc         1 MUW       0.056200
     72 H192         4.6320     0.7350    -4.3150 hc         1 MUW       0.056200
     73 H201         4.5190    -1.7100    -3.9590 h1         1 MUW       0.038700
     74 H202         5.9950    -1.6360    -2.9870 h1         1 MUW       0.038700
     75 HN21         6.5950    -0.4370    -5.4690 hn         1 MUW       0.329500
     76 H37          8.2120    -1.7820    -6.7560 h1         1 MUW       0.078700
     77 HN38         9.1300    -3.9250    -6.7950 hn         1 MUW       0.337500
     78 H441         7.7670    -8.2640    -6.9970 h1         1 MUW       0.045033
     79 H442         6.6050    -7.4320    -5.9540 h1         1 MUW       0.045033
     80 H443         6.4610    -7.3090    -7.7130 h1         1 MUW       0.045033
     81 H30          5.8160    -3.1930    -7.9870 hc         1 MUW       0.105700
     82 H25          3.9100    -1.8950    -8.0750 ha         1 MUW       0.129750
     83 H26          2.7910     0.3000    -7.9870 ha         1 MUW       0.135750
     84 H27          4.1300     2.3610    -7.7940 ha         1 MUW       0.138000
     85 H28          6.5910     2.2250    -7.6830 ha         1 MUW       0.135750
     86 H29          7.7100     0.0310    -7.7670 ha         1 MUW       0.129750
     87 H32          8.8170    -1.0400    -8.5790 ha         1 MUW       0.129750
     88 H33         10.1760    -1.1890   -10.6320 ha         1 MUW       0.135750
     89 H34          9.5140    -2.7270   -12.4400 ha         1 MUW       0.138000
     90 H35          7.4950    -4.1220   -12.1960 ha         1 MUW       0.135750
     91 H36          6.1370    -3.9760   -10.1430 ha         1 MUW       0.129750
     92 H453         2.8780    -7.0450    -2.6200 hn         1 MUW       0.540800
@<TRIPOS>BOND
     1     1     2 2
     2     2     4 1
     3     2     3 2
     4     2    12 1
     5     4     5 ar
     6     4    11 ar
     7     5     6 ar
     8     5    46 1
     9     6     7 ar
    10     6    47 1
    11     7     8 1
    12     7    10 ar
    13     8     9 1
    14     8    48 1
    15     8    49 1
    16     9    50 1
    17     9    51 1
    18    10    11 ar
    19    10    52 1
    20    11    53 1
    21    12    13 1
    22    12    17 1
    23    13    14 1
    24    13    54 1
    25    13    55 1
    26    14    16 1
    27    14    15 1
    28    14    56 1
    29    15    57 1
    30    15    58 1
    31    15    59 1
    32    16    60 1
    33    16    61 1
    34    16    62 1
    35    17    20 1
    36    17    18 1
    37    17    63 1
    38    18    19 1
    39    18    64 1
    40    18    65 1
    41    19    66 1
    42    20    21 1
    43    20    67 1
    44    20    68 1
    45    21    22 1
    46    21    69 1
    47    21    70 1
    48    22    23 1
    49    22    71 1
    50    22    72 1
    51    23    24 1
    52    23    73 1
    53    23    74 1
    54    24    25 1
    55    24    75 1
    56    25    27 1
    57    25    26 2
    58    27    33 1
    59    27    28 1
    60    27    76 1
    61    28    29 1
    62    28    77 1
    63    29    32 2
    64    29    30 1
    65    30    31 1
    66    31    78 1
    67    31    79 1
    68    31    80 1
    69    33    40 1
    70    33    34 1
    71    33    81 1
    72    34    35 ar
    73    34    39 ar
    74    35    36 ar
    75    35    82 1
    76    36    37 ar
    77    36    83 1
    78    37    38 ar
    79    37    84 1
    80    38    39 ar
    81    38    85 1
    82    39    86 1
    83    40    45 ar
    84    40    41 ar
    85    41    42 ar
    86    41    87 1
    87    42    43 ar
    88    42    88 1
    89    43    44 ar
    90    43    89 1
    91    44    45 ar
    92    44    90 1
    93    45    91 1
    94    92     9 1
@<TRIPOS>SUBSTRUCTURE
     1 MUW         1 TEMP              0 ****  ****    0 ROOT
