@<TRIPOS>MOLECULE
MUX
   24    25     1     0     0
SMALL
bcc


@<TRIPOS>ATOM
      1 O16         0.9490    1.3930    0.8960 o         1 MUX     -0.726533
      2 O15         2.9140    0.0910    0.9410 o         1 MUX     -0.726533
      3 O14         0.8110   -0.9340    0.6270 o         1 MUX     -0.726533
      4 C17         1.3530    0.5460   -3.4900 ca        1 MUX     -0.260000
      5 C11         1.0110    0.8380   -2.1510 ca        1 MUX      0.351100
      6 C10        -0.1480    1.6280   -1.8840 ca        1 MUX     -0.259000
      7 C02        -1.3910    2.2740   -5.3780 cc        1 MUX      0.086600
      8 C03        -1.0000    1.9540   -6.6400 cd        1 MUX     -0.330200
      9 C04         0.1870    1.1590   -6.8720 c         1 MUX      0.730800
     10 O05         0.6720    0.7890   -7.9480 o         1 MUX     -0.624500
     11 O06         0.9470    0.7080   -5.8010 os        1 MUX     -0.328200
     12 C07         0.5450    1.0350   -4.5170 ca        1 MUX      0.192100
     13 C08        -0.6100    1.8130   -4.2640 ca        1 MUX     -0.246800
     14 C09        -0.9260    2.0920   -2.9170 ca        1 MUX     -0.041000
     15 O12         1.7940    0.3840   -1.1910 os        1 MUX     -0.495800
     16 S13         1.5880    0.2060    0.5810 s6        1 MUX      1.723300
     17 H17         2.2430   -0.0560   -3.7110 ha        1 MUX      0.162000
     18 H10        -0.3920    1.8650   -0.8340 ha        1 MUX      0.179000
     19 H012       -2.3370    4.0240   -4.5860 hc        1 MUX      0.048700
     20 H013       -3.1070    3.3670   -6.0930 hc        1 MUX      0.048700
     21 H011       -3.3330    2.5100   -4.5090 hc        1 MUX      0.048700
     22 H03        -1.5500    2.2720   -7.5350 ha        1 MUX      0.148000
     23 H09        -1.8180    2.7000   -2.6970 ha        1 MUX      0.118000
     24 C01        -2.6070    3.0860   -5.1340 c3        1 MUX     -0.069900
@<TRIPOS>BOND
     1    1   16 1   
     2    2   16 1   
     3    3   16 1   
     4    4    5 ar  
     5    4   12 ar  
     6    4   17 1   
     7    5    6 ar  
     8    5   15 1   
     9    6   14 ar  
    10    6   18 1   
    11    7    8 2   
    12    7   13 1   
    13    7   24 1   
    14    8    9 1   
    15    8   22 1   
    16    9   10 2   
    17    9   11 1   
    18   11   12 1   
    19   12   13 ar  
    20   13   14 ar  
    21   14   23 1   
    22   15   16 1   
    23   19   24 1   
    24   20   24 1   
    25   21   24 1   
@<TRIPOS>SUBSTRUCTURE
     1 MUX         1 TEMP              0 ****  ****    0 ROOT
