@<TRIPOS>MOLECULE
molecule
   24    25     1     0     0
SMALL
bcc


@<TRIPOS>ATOM
      1 O16          0.0000     0.0000     0.0000 o          1 MUX      -0.714867
      2 O15          2.1980     0.0000     1.1900 o          1 MUX      -0.714867
      3 O14          1.8500    -1.2250    -0.7930 o          1 MUX      -0.714867
      4 C17          1.4030     0.9180    -3.1040 ca         1 MUX      -0.156000
      5 C11          1.0760     1.4790    -1.8800 ca         1 MUX       0.237100
      6 C10         -0.0420     2.3020    -1.7540 ca         1 MUX      -0.148000
      7 C02         -1.3460     2.2710    -5.2560 cc         1 MUX       0.043600
      8 C03         -0.9860     1.7040    -6.4360 cd         1 MUX      -0.312200
      9 C04          0.1600     0.8840    -6.5000 c          1 MUX       0.748800
     10 O05          0.4730     0.3820    -7.5640 o          1 MUX      -0.613500
     11 O06          0.9150     0.6430    -5.4160 os         1 MUX      -0.301200
     12 C07          0.6120     1.1770    -4.2130 ca         1 MUX       0.175100
     13 C08         -0.5180     2.0040    -4.0780 ca         1 MUX      -0.189800
     14 C09         -0.8310     2.5670    -2.8360 ca         1 MUX      -0.072000
     15 O12          1.8500     1.2250    -0.7940 os         1 MUX      -0.501800
     16 S13          1.4200     0.0000     0.0000 s6         1 MUX       1.537300
     17 H17          2.3230     0.3570    -3.2140 ha         1 MUX       0.180000
     18 H10         -0.2830     2.7390    -0.7920 ha         1 MUX       0.150000
     19 H012        -3.2440     2.7500    -4.4190 hc         1 MUX       0.049367
     20 H013        -2.2670     4.1520    -4.8740 hc         1 MUX       0.049367
     21 H011        -3.0620     3.1850    -6.1240 hc         1 MUX       0.049367
     22 H03         -1.5290     1.9460    -7.3420 ha         1 MUX       0.154000
     23 H09         -1.6420     3.2810    -2.7530 ha         1 MUX       0.126000
     24 C01         -2.5650     3.1510    -5.1610 c3         1 MUX      -0.059900
@<TRIPOS>BOND
     1     2    16 1
     2    16     1 1
     3    16     3 1
     4    16    15 1
     5    15     5 1
     6     5     6 ar
     7     5     4 ar
     8     6    14 ar
     9     4    12 ar
    10    14    13 ar
    11    12    13 ar
    12    12    11 1
    13    13     7 1
    14    11     9 1
    15     9    10 2
    16     9     8 1
    17     7     8 2
    18     7    24 1
    19     4    17 1
    20     6    18 1
    21    24    19 1
    22    24    20 1
    23    24    21 1
    24     8    22 1
    25    14    23 1
@<TRIPOS>SUBSTRUCTURE
     1 MUX         1 TEMP              0 ****  ****    0 ROOT
