@<TRIPOS>MOLECULE
molecule
   60    59     1     0     0
SMALL
bcc


@<TRIPOS>ATOM
      1 C            0.0000     0.0000     0.0000 c          1 MV1       0.660100
      2 N            3.4830    -0.0020    -1.4420 ns         1 MV1      -0.585900
      3 C1           6.2720    -1.2120    -3.0710 c3         1 MV1      -0.052000
      4 C2           7.7930    -1.1460    -2.9250 c3         1 MV1       0.150400
      5 O2           8.3660    -2.3840    -3.3520 oh         1 MV1      -0.609800
      6 C3           5.9090    -1.4620    -4.5360 c3         1 MV1      -0.083100
      7 C4           5.7260    -2.3510    -2.2080 c3         1 MV1      -0.083100
      8 C5           5.6590     0.1130    -2.6130 c3         1 MV1       0.079100
      9 C6           4.1560    -0.0020    -2.6100 c          1 MV1       0.645100
     10 C8           2.0180    -0.0010    -1.4420 c3         1 MV1       0.125000
     11 C9           1.5070     0.0000     0.0000 c3         1 MV1      -0.179400
     12 N15         -0.6740     0.0000     1.1670 ns         1 MV1      -0.589900
     13 C16         -2.1390     0.0010     1.1680 c3         1 MV1       0.112000
     14 C17         -2.6480     0.0010     2.6100 c3         1 MV1      -0.101400
     15 C18         -4.1780     0.0020     2.6090 c3         1 MV1      -0.078400
     16 C19         -4.6880     0.0020     4.0520 c3         1 MV1      -0.081400
     17 C20         -6.2180     0.0030     4.0520 c3         1 MV1      -0.081400
     18 C21         -6.7290     0.0040     5.4950 c3         1 MV1      -0.082400
     19 C22         -8.2580     0.0040     5.4950 c3         1 MV1      -0.081400
     20 C23         -8.7680     0.0050     6.9380 c3         1 MV1      -0.084400
     21 C24        -10.2980     0.0050     6.9370 c3         1 MV1      -0.092100
     22 O25         -0.6060     0.0030    -1.0500 o          1 MV1      -0.600100
     23 O5'          6.1150     0.4190    -1.2940 oh         1 MV1      -0.614800
     24 O6'          3.5530    -0.0970    -3.6580 o          1 MV1      -0.601100
     25 HN           3.9830     0.0470    -0.5770 hn         1 MV1       0.323500
     26 H2           8.1800    -0.3400    -3.5360 h1         1 MV1       0.025200
     27 H2A          8.0500    -0.9690    -1.8880 h1         1 MV1       0.025200
     28 HO2          9.3030    -2.3460    -3.2600 ho         1 MV1       0.402000
     29 H3           6.6190    -2.1560    -4.9700 hc         1 MV1       0.047200
     30 H3A          4.9130    -1.8820    -4.5950 hc         1 MV1       0.047200
     31 H3B          5.9400    -0.5260    -5.0810 hc         1 MV1       0.047200
     32 H4           4.6530    -2.4240    -2.3420 hc         1 MV1       0.047200
     33 H4A          6.1910    -3.2840    -2.5050 hc         1 MV1       0.047200
     34 H4B          5.9470    -2.1530    -1.1660 hc         1 MV1       0.047200
     35 H5           5.9590     0.9030    -3.2900 h1         1 MV1       0.064700
     36 H8           1.6570     0.8830    -1.9540 h1         1 MV1       0.070200
     37 H8A          1.6570    -0.8860    -1.9520 h1         1 MV1       0.070200
     38 H9           1.8680    -0.8840     0.5120 hc         1 MV1       0.062200
     39 H9A          1.8680     0.8850     0.5100 hc         1 MV1       0.062200
     40 HN15        -0.1730    -0.0000     2.0340 hn         1 MV1       0.311500
     41 H16         -2.4990     0.8850     0.6570 h1         1 MV1       0.055200
     42 H16A        -2.5000    -0.8840     0.6570 h1         1 MV1       0.055200
     43 H17         -2.2870     0.8860     3.1200 hc         1 MV1       0.044700
     44 H17A        -2.2880    -0.8840     3.1200 hc         1 MV1       0.044700
     45 H18         -4.5390     0.8870     2.0990 hc         1 MV1       0.046700
     46 H18A        -4.5400    -0.8820     2.0990 hc         1 MV1       0.046700
     47 H19         -4.3270     0.8860     4.5630 hc         1 MV1       0.041700
     48 H19A        -4.3280    -0.8830     4.5630 hc         1 MV1       0.041700
     49 H20         -6.5790    -0.8810     3.5420 hc         1 MV1       0.042700
     50 H20A        -6.5780     0.8880     3.5410 hc         1 MV1       0.042700
     51 H21         -6.3670     0.8880     6.0050 hc         1 MV1       0.040700
     52 H21A        -6.3680    -0.8810     6.0060 hc         1 MV1       0.040700
     53 H22         -8.6190    -0.8800     4.9850 hc         1 MV1       0.041700
     54 H22A        -8.6190     0.8880     4.9840 hc         1 MV1       0.041700
     55 H23         -8.4080    -0.8800     7.4490 hc         1 MV1       0.039700
     56 H23A        -8.4070     0.8890     7.4480 hc         1 MV1       0.039700
     57 H24        -10.6600    -0.8790     6.4260 hc         1 MV1       0.033033
     58 H24A       -10.6590     0.0050     7.9590 hc         1 MV1       0.033033
     59 H24B       -10.6590     0.8900     6.4270 hc         1 MV1       0.033033
     60 HO5'         6.2640     1.3470    -1.2200 ho         1 MV1       0.406000
@<TRIPOS>BOND
     1     1    11 1
     2     1    12 1
     3     1    22 2
     4     2     9 1
     5     2    10 1
     6     3     4 1
     7     3     6 1
     8     3     7 1
     9     3     8 1
    10     4     5 1
    11     8     9 1
    12     8    23 1
    13     9    24 2
    14    10    11 1
    15    12    13 1
    16    13    14 1
    17    14    15 1
    18    15    16 1
    19    16    17 1
    20    17    18 1
    21    18    19 1
    22    19    20 1
    23    20    21 1
    24     2    25 1
    25     4    26 1
    26     4    27 1
    27     5    28 1
    28     6    29 1
    29     6    30 1
    30     6    31 1
    31     7    32 1
    32     7    33 1
    33     7    34 1
    34     8    35 1
    35    10    36 1
    36    10    37 1
    37    11    38 1
    38    11    39 1
    39    12    40 1
    40    13    41 1
    41    13    42 1
    42    14    43 1
    43    14    44 1
    44    15    45 1
    45    15    46 1
    46    16    47 1
    47    16    48 1
    48    17    49 1
    49    17    50 1
    50    18    51 1
    51    18    52 1
    52    19    53 1
    53    19    54 1
    54    20    55 1
    55    20    56 1
    56    21    57 1
    57    21    58 1
    58    21    59 1
    59    23    60 1
@<TRIPOS>SUBSTRUCTURE
     1 MV1         1 TEMP              0 ****  ****    0 ROOT
