@<TRIPOS>MOLECULE
MV1
   60    59     1     0     0
SMALL
bcc


@<TRIPOS>ATOM
      1 C            0.0000     0.0000     0.0000 c          1 MV1       0.573100
      2 N            3.4830    -0.0020    -1.4420 ns         1 MV1      -0.201900
      3 C1           6.2720    -1.2120    -3.0710 c3         1 MV1      -0.069000
      4 C2           7.7930    -1.1460    -2.9250 c3         1 MV1       0.228400
      5 O2           8.3660    -2.3840    -3.3520 oh         1 MV1      -0.589800
      6 C3           5.9090    -1.4620    -4.5360 c3         1 MV1      -0.002100
      7 C4           5.7260    -2.3510    -2.2080 c3         1 MV1      -0.002100
      8 C5           5.6590     0.1130    -2.6130 c3         1 MV1       0.125100
      9 C6           4.1560    -0.0020    -2.6100 c          1 MV1       0.555100
     10 C8           2.0180    -0.0010    -1.4420 c3         1 MV1       0.061000
     11 C9           1.5070     0.0000     0.0000 c3         1 MV1      -0.111400
     12 N15         -0.6740     0.0000     1.1670 ns         1 MV1      -0.202900
     13 C16         -2.1390     0.0010     1.1680 c3         1 MV1       0.050000
     14 C17         -2.6480     0.0010     2.6100 c3         1 MV1      -0.042400
     15 C18         -4.1780     0.0020     2.6090 c3         1 MV1      -0.022400
     16 C19         -4.6880     0.0020     4.0520 c3         1 MV1      -0.029400
     17 C20         -6.2180     0.0030     4.0520 c3         1 MV1      -0.028400
     18 C21         -6.7290     0.0040     5.4950 c3         1 MV1      -0.029400
     19 C22         -8.2580     0.0040     5.4950 c3         1 MV1      -0.029400
     20 C23         -8.7680     0.0050     6.9380 c3         1 MV1      -0.028400
     21 C24        -10.2980     0.0050     6.9370 c3         1 MV1       0.005900
     22 O25         -0.6060     0.0030    -1.0500 o          1 MV1      -0.637100
     23 O5'          6.1150     0.4190    -1.2940 oh         1 MV1      -0.594800
     24 O6'          3.5530    -0.0970    -3.6580 o          1 MV1      -0.640100
     25 HN           3.9830     0.0470    -0.5770 hn         1 MV1       0.186500
     26 H2           8.1800    -0.3400    -3.5360 h1         1 MV1      -0.008800
     27 H2A          8.0500    -0.9690    -1.8880 h1         1 MV1      -0.008800
     28 HO2          9.3030    -2.3460    -3.2600 ho         1 MV1       0.388000
     29 H3           6.6190    -2.1560    -4.9700 hc         1 MV1       0.016533
     30 H3A          4.9130    -1.8820    -4.5950 hc         1 MV1       0.016533
     31 H3B          5.9400    -0.5260    -5.0810 hc         1 MV1       0.016533
     32 H4           4.6530    -2.4240    -2.3420 hc         1 MV1       0.016533
     33 H4A          6.1910    -3.2840    -2.5050 hc         1 MV1       0.016533
     34 H4B          5.9470    -2.1530    -1.1660 hc         1 MV1       0.016533
     35 H5           5.9590     0.9030    -3.2900 h1         1 MV1       0.028700
     36 H8           1.6570     0.8830    -1.9540 h1         1 MV1       0.042200
     37 H8A          1.6570    -0.8860    -1.9520 h1         1 MV1       0.042200
     38 H9           1.8680    -0.8840     0.5120 hc         1 MV1       0.027700
     39 H9A          1.8680     0.8850     0.5100 hc         1 MV1       0.027700
     40 HN15        -0.1730    -0.0000     2.0340 hn         1 MV1       0.172500
     41 H16         -2.4990     0.8850     0.6570 h1         1 MV1       0.028700
     42 H16A        -2.5000    -0.8840     0.6570 h1         1 MV1       0.028700
     43 H17         -2.2870     0.8860     3.1200 hc         1 MV1       0.016200
     44 H17A        -2.2880    -0.8840     3.1200 hc         1 MV1       0.016200
     45 H18         -4.5390     0.8870     2.0990 hc         1 MV1       0.019700
     46 H18A        -4.5400    -0.8820     2.0990 hc         1 MV1       0.019700
     47 H19         -4.3270     0.8860     4.5630 hc         1 MV1       0.014700
     48 H19A        -4.3280    -0.8830     4.5630 hc         1 MV1       0.014700
     49 H20         -6.5790    -0.8810     3.5420 hc         1 MV1       0.015700
     50 H20A        -6.5780     0.8880     3.5410 hc         1 MV1       0.015700
     51 H21         -6.3670     0.8880     6.0050 hc         1 MV1       0.014700
     52 H21A        -6.3680    -0.8810     6.0060 hc         1 MV1       0.014700
     53 H22         -8.6190    -0.8800     4.9850 hc         1 MV1       0.015200
     54 H22A        -8.6190     0.8880     4.9840 hc         1 MV1       0.015200
     55 H23         -8.4080    -0.8800     7.4490 hc         1 MV1       0.011700
     56 H23A        -8.4070     0.8890     7.4480 hc         1 MV1       0.011700
     57 H24        -10.6600    -0.8790     6.4260 hc         1 MV1       0.000367
     58 H24A       -10.6590     0.0050     7.9590 hc         1 MV1       0.000367
     59 H24B       -10.6590     0.8900     6.4270 hc         1 MV1       0.000367
     60 HO5'         6.2640     1.3470    -1.2200 ho         1 MV1       0.394000
@<TRIPOS>BOND
     1     1    11 1   
     2     1    12 1   
     3     1    22 2   
     4     2     9 1   
     5     2    10 1   
     6     2    25 1   
     7     3     4 1   
     8     3     6 1   
     9     3     7 1   
    10     3     8 1   
    11     4     5 1   
    12     4    26 1   
    13     4    27 1   
    14     5    28 1   
    15     6    29 1   
    16     6    30 1   
    17     6    31 1   
    18     7    32 1   
    19     7    33 1   
    20     7    34 1   
    21     8     9 1   
    22     8    23 1   
    23     8    35 1   
    24     9    24 2   
    25    10    11 1   
    26    10    36 1   
    27    10    37 1   
    28    11    38 1   
    29    11    39 1   
    30    12    13 1   
    31    12    40 1   
    32    13    14 1   
    33    13    41 1   
    34    13    42 1   
    35    14    15 1   
    36    14    43 1   
    37    14    44 1   
    38    15    16 1   
    39    15    45 1   
    40    15    46 1   
    41    16    17 1   
    42    16    47 1   
    43    16    48 1   
    44    17    18 1   
    45    17    49 1   
    46    17    50 1   
    47    18    19 1   
    48    18    51 1   
    49    18    52 1   
    50    19    20 1   
    51    19    53 1   
    52    19    54 1   
    53    20    21 1   
    54    20    55 1   
    55    20    56 1   
    56    21    57 1   
    57    21    58 1   
    58    21    59 1   
    59    23    60 1   
@<TRIPOS>SUBSTRUCTURE
     1 MV1         1 TEMP              0 ****  ****    0 ROOT
