@<TRIPOS>MOLECULE
molecule
   33    32     1     0     0
SMALL
bcc


@<TRIPOS>ATOM
      1 C            0.0000     0.0000     0.0000 c3         1 MV2       0.145400
      2 N           -2.5280     0.0010     2.8240 ns         1 MV2      -0.578900
      3 O            1.4290     0.0000     0.0000 oh         1 MV2      -0.610800
      4 C1          -4.9920     1.2090     4.9120 c3         1 MV2      -0.052000
      5 C2          -5.3630     1.1450     6.3950 c3         1 MV2       0.150400
      6 O2          -5.9570     2.3820     6.7920 oh         1 MV2      -0.609800
      7 C3          -6.2540     1.4590     4.0820 c3         1 MV2      -0.083600
      8 C4          -3.9980     2.3500     4.6840 c3         1 MV2      -0.083600
      9 C5          -4.3560    -0.1150     4.4870 c3         1 MV2       0.080100
     10 O5          -3.2640    -0.4200     5.3570 oh         1 MV2      -0.612800
     11 C6          -3.8530     0.0010     3.0700 c          1 MV2       0.646100
     12 O6          -4.6400     0.0940     2.1530 o          1 MV2      -0.609100
     13 C8          -2.0400    -0.0000     1.4430 c3         1 MV2       0.110000
     14 C9          -0.5100     0.0000     1.4430 c3         1 MV2      -0.101400
     15 H           -0.3610    -0.8850    -0.5110 h1         1 MV2       0.023700
     16 HA          -0.3610     0.8850    -0.5110 h1         1 MV2       0.023700
     17 HN          -1.8780    -0.0520     3.5840 hn         1 MV2       0.330500
     18 HO           1.7430    -0.0040    -0.8890 ho         1 MV2       0.405000
     19 H2          -6.0670     0.3380     6.5570 h1         1 MV2       0.025200
     20 H2A         -4.4700     0.9680     6.9830 h1         1 MV2       0.025200
     21 HO2         -6.1500     2.3560     7.7150 ho         1 MV2       0.402000
     22 H3          -6.7920     0.5280     3.9550 hc         1 MV2       0.047033
     23 H3A         -6.8870     2.1740     4.5940 hc         1 MV2       0.047033
     24 H3B         -5.9760     1.8510     3.1120 hc         1 MV2       0.047033
     25 H4          -4.4030     3.2680     5.0910 hc         1 MV2       0.047033
     26 H4A         -3.8250     2.4710     3.6210 hc         1 MV2       0.047033
     27 H4B         -3.0620     2.1170     5.1770 hc         1 MV2       0.047033
     28 H5          -5.0950    -0.9050     4.5440 h1         1 MV2       0.064700
     29 HO5         -3.2430    -1.3480     5.5230 ho         1 MV2       0.407000
     30 H8          -2.4010     0.8840     0.9320 h1         1 MV2       0.051700
     31 H8A         -2.4010    -0.8850     0.9330 h1         1 MV2       0.051700
     32 H9          -0.1490    -0.8840     1.9540 hc         1 MV2       0.059200
     33 H9A         -0.1490     0.8850     1.9540 hc         1 MV2       0.059200
@<TRIPOS>BOND
     1     1     3 1
     2     1    14 1
     3     2    11 1
     4     2    13 1
     5     4     5 1
     6     4     7 1
     7     4     8 1
     8     4     9 1
     9     5     6 1
    10     9    10 1
    11     9    11 1
    12    11    12 2
    13    13    14 1
    14     1    15 1
    15     1    16 1
    16     2    17 1
    17     3    18 1
    18     5    19 1
    19     5    20 1
    20     6    21 1
    21     7    22 1
    22     7    23 1
    23     7    24 1
    24     8    25 1
    25     8    26 1
    26     8    27 1
    27     9    28 1
    28    10    29 1
    29    13    30 1
    30    13    31 1
    31    14    32 1
    32    14    33 1
@<TRIPOS>SUBSTRUCTURE
     1 MV2         1 TEMP              0 ****  ****    0 ROOT
