@<TRIPOS>MOLECULE
MVB
   48    50     1     0     0
SMALL
bcc


@<TRIPOS>ATOM
      1 O1          0.1610   -0.0330    0.3640 oh        1 MVB     -0.589800
      2 C1          3.5780   -0.7200    1.6950 c         1 MVB      0.722600
      3 O2          4.3420   -0.6890    2.6630 o         1 MVB     -0.585500
      4 O3          4.1350   -1.3580    0.6200 os        1 MVB     -0.413900
      5 O5          7.9420   -1.3970   -1.7920 oh        1 MVB     -0.597800
      6 C7          3.5040   -1.2500   -0.6690 c3        1 MVB      0.148100
      7 C8          1.9890   -1.2000   -0.5780 c3        1 MVB     -0.116400
      8 C9          1.5800   -0.0300    0.3060 c3        1 MVB      0.143100
      9 C10         2.1770   -0.1980    1.6970 c3        1 MVB     -0.208400
     10 C11         4.7920   -3.1380   -4.7010 c3        1 MVB     -0.086100
     11 C12         3.9700   -2.4650   -1.4670 c3        1 MVB     -0.080400
     12 C13         5.4040   -2.2950   -1.9250 c3        1 MVB     -0.075400
     13 C14         5.9890   -3.5760   -2.4830 c3        1 MVB     -0.037700
     14 C15         5.1520   -4.1600   -3.6370 c3        1 MVB     -0.035500
     15 C16         5.8350   -5.3190   -4.2880 c2        1 MVB     -0.155200
     16 C17         7.1200   -5.6370   -4.0770 ce        1 MVB     -0.134000
     17 C18         7.9330   -4.8660   -3.1450 ce        1 MVB     -0.085200
     18 C19         7.4450   -3.4520   -2.9590 c3        1 MVB     -0.015500
     19 C20         8.4620   -2.6760   -2.1170 c3        1 MVB      0.150100
     20 C21         8.9000   -3.4660   -0.8900 c3        1 MVB     -0.114400
     21 C22         9.6430   -4.7090   -1.3410 c3        1 MVB     -0.042200
     22 C23         8.9290   -5.4150   -2.4310 c2        1 MVB     -0.161200
     23 HO1        -0.0970    0.7170    0.9140 ho        1 MVB      0.405000
     24 H7          3.8950   -0.3010   -1.1360 h1        1 MVB      0.058700
     25 H81         1.5510   -1.0720   -1.6000 hc        1 MVB      0.074700
     26 H82         1.5880   -2.1550   -0.1500 hc        1 MVB      0.074700
     27 H9          1.9340    0.9390   -0.1490 h1        1 MVB      0.043700
     28 H101        1.5500   -0.9250    2.2830 hc        1 MVB      0.090700
     29 H102        2.1620    0.7800    2.2470 hc        1 MVB      0.090700
     30 H111        4.1380   -2.3400   -4.2760 hc        1 MVB      0.036367
     31 H112        5.7070   -2.6560   -5.1200 hc        1 MVB      0.036367
     32 H113        4.2420   -3.6360   -5.5360 hc        1 MVB      0.036367
     33 H121        3.2840   -2.5910   -2.3450 hc        1 MVB      0.053700
     34 H122        3.8810   -3.3810   -0.8260 hc        1 MVB      0.053700
     35 H131        5.4810   -1.4740   -2.6840 hc        1 MVB      0.065700
     36 H132        6.0130   -1.9800   -1.0320 hc        1 MVB      0.065700
     37 H14         5.9710   -4.3370   -1.6470 hc        1 MVB      0.051700
     38 H15         4.1890   -4.5410   -3.1830 hc        1 MVB      0.051700
     39 H16         5.2060   -5.9050   -4.9760 ha        1 MVB      0.123000
     40 H17         7.5940   -6.5010   -4.5660 ha        1 MVB      0.128000
     41 H19         7.4260   -2.9380   -3.9640 hc        1 MVB      0.067700
     42 H20         9.3750   -2.5150   -2.7710 h1        1 MVB      0.030700
     43 H211        9.5630   -2.8370   -0.2420 hc        1 MVB      0.052700
     44 H212        7.9990   -3.7440   -0.2840 hc        1 MVB      0.052700
     45 H221        9.7720   -5.4040   -0.4690 hc        1 MVB      0.051200
     46 H222       10.6720   -4.4280   -1.6960 hc        1 MVB      0.051200
     47 H23         9.2480   -6.4540   -2.6140 ha        1 MVB      0.125000
     48 HO5         8.5570   -0.9980   -1.1660 ho        1 MVB      0.402000
@<TRIPOS>BOND
     1    1    8 1   
     2    1   23 1   
     3    2    3 2   
     4    2    4 1   
     5    2    9 1   
     6    4    6 1   
     7    5   19 1   
     8    5   48 1   
     9    6    7 1   
    10    6   11 1   
    11    6   24 1   
    12    7    8 1   
    13    7   25 1   
    14    7   26 1   
    15    8    9 1   
    16    8   27 1   
    17    9   28 1   
    18    9   29 1   
    19   10   14 1   
    20   10   30 1   
    21   10   31 1   
    22   10   32 1   
    23   11   12 1   
    24   11   33 1   
    25   11   34 1   
    26   12   13 1   
    27   12   35 1   
    28   12   36 1   
    29   13   14 1   
    30   13   18 1   
    31   13   37 1   
    32   14   15 1   
    33   14   38 1   
    34   15   16 2   
    35   15   39 1   
    36   16   17 1   
    37   16   40 1   
    38   17   18 1   
    39   17   22 2   
    40   18   19 1   
    41   18   41 1   
    42   19   20 1   
    43   19   42 1   
    44   20   21 1   
    45   20   43 1   
    46   20   44 1   
    47   21   22 1   
    48   21   45 1   
    49   21   46 1   
    50   22   47 1   
@<TRIPOS>SUBSTRUCTURE
     1 MVB         1 TEMP              0 ****  ****    0 ROOT
