@<TRIPOS>MOLECULE
molecule
   48    50     1     0     0
SMALL
bcc


@<TRIPOS>ATOM
      1 O1           0.0000     0.0000     0.0000 oh         1 MVB      -0.597800
      2 C1           3.4490    -0.1580     1.4160 c          1 MVB       0.741600
      3 O2           4.1660     0.5630     2.0690 o          1 MVB      -0.565500
      4 O3           3.9640    -1.1320     0.6320 os         1 MVB      -0.440900
      5 O5           7.5670    -2.2480    -0.6780 oh         1 MVB      -0.591800
      6 C7           3.4730    -1.2390    -0.7350 c3         1 MVB       0.172100
      7 C8           1.9420    -1.2540    -0.7140 c3         1 MVB      -0.131400
      8 C9           1.4290     0.0000     0.0000 c3         1 MVB       0.148100
      9 C10          1.9440     0.0000     1.4440 c3         1 MVB      -0.202400
     10 C11          4.8480    -2.9790    -4.1750 c3         1 MVB      -0.097100
     11 C12          3.9900    -2.5330    -1.3660 c3         1 MVB      -0.092400
     12 C13          5.5130    -2.4640    -1.4940 c3         1 MVB      -0.073400
     13 C14          6.0310    -3.7580    -2.1250 c3         1 MVB      -0.042700
     14 C15          5.1030    -4.1830    -3.2650 c3         1 MVB      -0.041500
     15 C16          5.6950    -5.2940    -4.0770 c2         1 MVB      -0.156200
     16 C17          6.9810    -5.5990    -4.0920 ce         1 MVB      -0.134000
     17 C18          7.9270    -4.8290    -3.2530 ce         1 MVB      -0.080200
     18 C19          7.4310    -3.5280    -2.6940 c3         1 MVB      -0.016500
     19 C20          8.3540    -2.8780    -1.6910 c3         1 MVB       0.148100
     20 C21          9.2900    -3.8900    -1.0340 c3         1 MVB      -0.107400
     21 C22         10.1060    -4.5800    -2.1380 c3         1 MVB      -0.044200
     22 C23          9.1370    -5.3070    -3.0350 c2         1 MVB      -0.165200
     23 HO1         -0.3140     0.8220    -0.3380 ho         1 MVB       0.406000
     24 H7           3.8170    -0.3870    -1.3090 h1         1 MVB       0.050700
     25 H81          1.5980    -2.1350    -0.1860 hc         1 MVB       0.069200
     26 H82          1.5680    -1.2670    -1.7310 hc         1 MVB       0.069200
     27 H9           1.7960     0.8810    -0.5130 h1         1 MVB       0.036700
     28 H101         1.5020    -0.8260     1.9880 hc         1 MVB       0.085700
     29 H102         1.6860     0.9370     1.9220 hc         1 MVB       0.085700
     30 H111         3.8520    -3.0500    -4.5960 hc         1 MVB       0.039033
     31 H112         5.5790    -2.9700    -4.9750 hc         1 MVB       0.039033
     32 H113         4.9320    -2.0660    -3.5990 hc         1 MVB       0.039033
     33 H121         3.7180    -3.3740    -0.7410 hc         1 MVB       0.058700
     34 H122         3.5510    -2.6560    -2.3490 hc         1 MVB       0.058700
     35 H131         5.9520    -2.3410    -0.5120 hc         1 MVB       0.076700
     36 H132         5.7850    -1.6230    -2.1200 hc         1 MVB       0.076700
     37 H14          6.0680    -4.5420    -1.3790 hc         1 MVB       0.063700
     38 H15          4.1630    -4.5190    -2.8450 hc         1 MVB       0.055700
     39 H16          5.0270    -5.8840    -4.6910 ha         1 MVB       0.118000
     40 H17          7.3230    -6.4740    -4.6310 ha         1 MVB       0.130000
     41 H19          7.3300    -2.8400    -3.5250 hc         1 MVB       0.059700
     42 H20          8.9490    -2.1290    -2.1980 h1         1 MVB       0.029700
     43 H211         8.7080    -4.6290    -0.4970 hc         1 MVB       0.052700
     44 H212         9.9590    -3.3780    -0.3540 hc         1 MVB       0.052700
     45 H221        10.6490    -3.8380    -2.7100 hc         1 MVB       0.050700
     46 H222        10.7960    -5.2880    -1.6950 hc         1 MVB       0.050700
     47 H23          9.4400    -6.2310    -3.5110 ha         1 MVB       0.126000
     48 HO5          8.0820    -1.5870    -0.2460 ho         1 MVB       0.390000
@<TRIPOS>BOND
     1     1     8 1
     2     1    23 1
     3     2     3 2
     4     2     4 1
     5     2     9 1
     6     4     6 1
     7     5    19 1
     8     5    48 1
     9     6     7 1
    10     6    11 1
    11     6    24 1
    12     7     8 1
    13     7    25 1
    14     7    26 1
    15     8     9 1
    16     8    27 1
    17     9    28 1
    18     9    29 1
    19    10    14 1
    20    10    30 1
    21    10    31 1
    22    10    32 1
    23    11    12 1
    24    11    33 1
    25    11    34 1
    26    12    13 1
    27    12    35 1
    28    12    36 1
    29    13    14 1
    30    13    18 1
    31    13    37 1
    32    14    15 1
    33    14    38 1
    34    15    16 2
    35    15    39 1
    36    16    17 1
    37    16    40 1
    38    17    18 1
    39    17    22 2
    40    18    19 1
    41    18    41 1
    42    19    20 1
    43    19    42 1
    44    20    21 1
    45    20    43 1
    46    20    44 1
    47    21    22 1
    48    21    45 1
    49    21    46 1
    50    22    47 1
@<TRIPOS>SUBSTRUCTURE
     1 MVB         1 TEMP              0 ****  ****    0 ROOT
