@<TRIPOS>MOLECULE
molecule
   65    64     1     0     0
SMALL
bcc


@<TRIPOS>ATOM
      1 C17          0.0000     0.0000     0.0000 c3         1 MVC      -0.080400
      2 C9           7.6720    -2.8000     1.3710 c3         1 MVC      -0.087400
      3 C8           9.1960    -2.7790     1.5090 c3         1 MVC      -0.080400
      4 C16          1.5290     0.0000     0.0000 c3         1 MVC      -0.087400
      5 C10          7.0550    -1.8400     2.3900 c3         1 MVC      -0.035400
      6 C7           9.8130    -3.7390     0.4900 c3         1 MVC      -0.082400
      7 C24         17.7910    -6.2940    -1.7490 c3         1 MVC       0.136400
      8 C15          2.0390     0.0000     1.4430 c3         1 MVC      -0.034400
      9 C11          5.5320    -1.8610     2.2530 c3         1 MVC      -0.150200
     10 C6          11.3370    -3.7170     0.6270 c3         1 MVC      -0.080400
     11 C14          3.5700    -0.0000     1.4420 c3         1 MVC      -0.144200
     12 C12          4.9230    -0.9140     3.2570 c2         1 MVC      -0.337200
     13 C5          11.9550    -4.6770    -0.3920 c3         1 MVC      -0.083400
     14 C13          4.0710    -0.0010     2.8630 c2         1 MVC      -0.346200
     15 C4          13.4780    -4.6560    -0.2540 c3         1 MVC      -0.072400
     16 C3          14.0950    -5.6160    -1.2740 c3         1 MVC      -0.125400
     17 C21         19.9980    -7.0680    -2.6300 c3         1 MVC       0.131400
     18 C22         18.4810    -7.2340    -2.7400 c3         1 MVC       0.149100
     19 O19         16.1190    -4.8860    -0.3110 o          1 MVC      -0.550000
     20 C1          15.5960    -5.5950    -1.1380 c          1 MVC       0.632100
     21 O25         16.3530    -6.3650    -1.9360 os         1 MVC      -0.427900
     22 O23         18.1260    -8.5860    -2.4410 oh         1 MVC      -0.591800
     23 O20         20.6380    -7.8580    -3.6330 oh         1 MVC      -0.605800
     24 C18         -0.5100    -0.0000    -1.4430 c3         1 MVC      -0.084400
     25 C19         -2.0410     0.0000    -1.4430 c3         1 MVC      -0.092100
     26 H101         7.3320    -2.1490     3.3910 hc         1 MVC       0.058700
     27 H102         7.4210    -0.8360     2.2090 hc         1 MVC       0.058700
     28 H91C         7.3960    -2.4900     0.3710 hc         1 MVC       0.040700
     29 H92C         7.3070    -3.8030     1.5530 hc         1 MVC       0.040700
     30 H111         5.1670    -2.8640     2.4350 hc         1 MVC       0.034200
     31 H112         5.2560    -1.5520     1.2520 hc         1 MVC       0.034200
     32 H81C         9.4730    -3.0880     2.5100 hc         1 MVC       0.045200
     33 H82C         9.5620    -1.7750     1.3270 hc         1 MVC       0.045200
     34 H171        -0.3610    -0.8850     0.5110 hc         1 MVC       0.045200
     35 H172        -0.3610     0.8850     0.5110 hc         1 MVC       0.045200
     36 H161         1.8900    -0.8850    -0.5110 hc         1 MVC       0.040700
     37 H162         1.8900     0.8850    -0.5110 hc         1 MVC       0.040700
     38 H12          4.4020    -1.8120     2.9490 ha         1 MVC       0.331000
     39 H71C         9.5360    -3.4300    -0.5110 hc         1 MVC       0.040700
     40 H72C         9.4490    -4.7420     0.6720 hc         1 MVC       0.040700
     41 H241        18.1280    -5.2790    -1.9200 h1         1 MVC       0.059700
     42 H242        18.0390    -6.5920    -0.7370 h1         1 MVC       0.059700
     43 H22         18.1640    -6.9920    -3.7470 h1         1 MVC       0.052700
     44 H151         1.6780    -0.8840     1.9530 hc         1 MVC       0.058200
     45 H152         1.6790     0.8850     1.9530 hc         1 MVC       0.058200
     46 H13          4.6420     0.4670     2.0700 ha         1 MVC       0.331000
     47 H61C        11.7020    -2.7130     0.4450 hc         1 MVC       0.045200
     48 H62C        11.6140    -4.0250     1.6280 hc         1 MVC       0.045200
     49 H141         3.9310    -0.8850     0.9310 hc         1 MVC       0.033700
     50 H142         3.9310     0.8840     0.9320 hc         1 MVC       0.033700
     51 H51C        11.5900    -5.6800    -0.2100 hc         1 MVC       0.040700
     52 H52C        11.6780    -4.3680    -1.3930 hc         1 MVC       0.040700
     53 H41C        13.8440    -3.6520    -0.4360 hc         1 MVC       0.059700
     54 H42C        13.7550    -4.9650     0.7460 hc         1 MVC       0.059700
     55 H31C        13.8190    -5.3060    -2.2740 hc         1 MVC       0.071700
     56 H32C        13.7300    -6.6190    -1.0920 hc         1 MVC       0.071700
     57 H211        20.3260    -7.3930    -1.6500 h1         1 MVC       0.032200
     58 H212        20.2580    -6.0260    -2.7700 h1         1 MVC       0.032200
     59 H20         21.5660    -7.6920    -3.6190 ho         1 MVC       0.407000
     60 H23         17.7050    -8.9730    -3.1900 ho         1 MVC       0.412000
     61 H181        -0.1490    -0.8850    -1.9530 hc         1 MVC       0.039700
     62 H182        -0.1490     0.8840    -1.9530 hc         1 MVC       0.039700
     63 H191        -2.4010     0.0010    -2.4650 hc         1 MVC       0.034033
     64 H192        -2.4020    -0.8840    -0.9330 hc         1 MVC       0.034033
     65 H193        -2.4020     0.8850    -0.9330 hc         1 MVC       0.034033
@<TRIPOS>BOND
     1     5     2 1
     2     5     9 1
     3     2     3 1
     4     1     4 1
     5     9    12 1
     6     3     6 1
     7     7    18 1
     8     7    21 1
     9     4     8 1
    10    12    14 2
    11     6    10 1
    12     8    11 1
    13    14    11 1
    14    10    13 1
    15    13    15 1
    16    15    16 1
    17    16    20 1
    18    17    18 1
    19    17    23 1
    20    18    22 1
    21    19    20 2
    22    21    20 1
    23     1    24 1
    24    24    25 1
    25     5    26 1
    26     5    27 1
    27     2    28 1
    28     2    29 1
    29     9    30 1
    30     9    31 1
    31     3    32 1
    32     3    33 1
    33     1    34 1
    34     1    35 1
    35     4    36 1
    36     4    37 1
    37    12    38 1
    38     6    39 1
    39     6    40 1
    40     7    41 1
    41     7    42 1
    42    18    43 1
    43     8    44 1
    44     8    45 1
    45    14    46 1
    46    10    47 1
    47    10    48 1
    48    11    49 1
    49    11    50 1
    50    13    51 1
    51    13    52 1
    52    15    53 1
    53    15    54 1
    54    16    55 1
    55    16    56 1
    56    17    57 1
    57    17    58 1
    58    23    59 1
    59    22    60 1
    60    24    61 1
    61    24    62 1
    62    25    63 1
    63    25    64 1
    64    25    65 1
@<TRIPOS>SUBSTRUCTURE
     1 MVC         1 TEMP              0 ****  ****    0 ROOT
