@<TRIPOS>MOLECULE
MVC
   65    64     1     0     0
SMALL
bcc


@<TRIPOS>ATOM
      1 C17        -0.5450    0.3230    0.2430 c3        1 MVC     -0.079400
      2 C9          8.0360   -2.5360    0.9030 c3        1 MVC     -0.079400
      3 C8          9.4840   -2.7780    1.2720 c3        1 MVC     -0.079400
      4 C16         0.8490   -0.2530    0.1270 c3        1 MVC     -0.079400
      5 C10         7.3700   -1.5930    1.8830 c3        1 MVC     -0.077400
      6 C7         10.1490   -3.7220    0.2940 c3        1 MVC     -0.079400
      7 C24        17.9600   -6.9810   -1.2500 c3        1 MVC      0.138400
      8 C15         1.7180    0.1710    1.2920 c3        1 MVC     -0.077400
      9 C11         5.9230   -1.3490    1.5090 c3        1 MVC     -0.049200
     10 C6         11.5980   -3.9610    0.6610 c3        1 MVC     -0.079400
     11 C14         3.1130   -0.4060    1.1730 c3        1 MVC     -0.049200
     12 C12         5.2460   -0.4280    2.4510 c2        1 MVC     -0.174200
     13 C5         12.2620   -4.9070   -0.3160 c3        1 MVC     -0.078400
     14 C13         3.9850   -0.0070    2.3020 c2        1 MVC     -0.173200
     15 C4         13.7100   -5.1430    0.0550 c3        1 MVC     -0.079400
     16 C3         14.3720   -6.0770   -0.9360 c3        1 MVC     -0.127400
     17 C21        20.0120   -6.4810   -2.6130 c3        1 MVC      0.092400
     18 C22        18.6540   -7.1920   -2.5970 c3        1 MVC      0.140100
     19 O19        16.2080   -6.5920    0.6330 o         1 MVC     -0.542000
     20 C1         15.7620   -6.4240   -0.5040 c         1 MVC      0.634100
     21 O25        16.6180   -6.5770   -1.5620 os        1 MVC     -0.444900
     22 O23        18.8260   -8.5930   -2.7460 oh        1 MVC     -0.599800
     23 O20        20.5960   -6.7830   -3.8710 oh        1 MVC     -0.611800
     24 C18        -1.4150   -0.1000   -0.9220 c3        1 MVC     -0.080400
     25 C19        -2.8050    0.4710   -0.8100 c3        1 MVC     -0.092100
     26 H101        7.9230   -0.6170    1.9010 hc        1 MVC      0.041700
     27 H102        7.4250   -2.0240    2.9170 hc        1 MVC      0.041700
     28 H91C        7.9780   -2.1060   -0.1320 hc        1 MVC      0.039700
     29 H92C        7.4840   -3.5130    0.8870 hc        1 MVC      0.039700
     30 H111        5.3700   -2.3290    1.4860 hc        1 MVC      0.047200
     31 H112        5.8690   -0.9260    0.4680 hc        1 MVC      0.047200
     32 H81C       10.0360   -1.8010    1.2870 hc        1 MVC      0.040700
     33 H82C        9.5420   -3.2060    2.3080 hc        1 MVC      0.040700
     34 H171       -1.0140   -0.0180    1.2040 hc        1 MVC      0.039700
     35 H172       -0.4880    1.4420    0.2820 hc        1 MVC      0.039700
     36 H161        1.3170    0.0860   -0.8350 hc        1 MVC      0.039700
     37 H162        0.7920   -1.3730    0.0880 hc        1 MVC      0.039700
     38 H12         5.8460   -0.0930    3.3140 ha        1 MVC      0.122000
     39 H71C       10.0880   -3.2960   -0.7420 hc        1 MVC      0.040200
     40 H72C        9.5980   -4.7000    0.2820 hc        1 MVC      0.040200
     41 H241       17.9340   -7.9300   -0.6530 h1        1 MVC      0.068200
     42 H242       18.4470   -6.1690   -0.6520 h1        1 MVC      0.068200
     43 H22        18.0150   -6.8010   -3.4380 h1        1 MVC      0.069700
     44 H151        1.7750    1.2900    1.3300 hc        1 MVC      0.041700
     45 H152        1.2500   -0.1700    2.2530 hc        1 MVC      0.041700
     46 H13         3.5370    0.6780    3.0400 ha        1 MVC      0.122000
     47 H61C       11.6590   -4.3870    1.6970 hc        1 MVC      0.042700
     48 H62C       12.1490   -2.9830    0.6730 hc        1 MVC      0.042700
     49 H141        3.5780   -0.0690    0.2050 hc        1 MVC      0.047200
     50 H142        3.0530   -1.5290    1.1250 hc        1 MVC      0.047200
     51 H51C       12.2020   -4.4800   -1.3530 hc        1 MVC      0.041200
     52 H52C       11.7110   -5.8840   -0.3270 hc        1 MVC      0.041200
     53 H41C       13.7770   -5.5840    1.0850 hc        1 MVC      0.057200
     54 H42C       14.2610   -4.1660    0.0770 hc        1 MVC      0.057200
     55 H31C       14.4000   -5.6140   -1.9580 hc        1 MVC      0.079200
     56 H32C       13.7970   -7.0390   -1.0120 hc        1 MVC      0.079200
     57 H211       19.8730   -5.3740   -2.5080 h1        1 MVC      0.037700
     58 H212       20.6630   -6.8620   -1.7820 h1        1 MVC      0.037700
     59 H20        21.4880   -6.4200   -3.8590 ho        1 MVC      0.410000
     60 H23        19.3260   -8.7230   -3.5630 ho        1 MVC      0.421000
     61 H181       -1.4700   -1.2200   -0.9600 hc        1 MVC      0.038700
     62 H182       -0.9440    0.2400   -1.8820 hc        1 MVC      0.038700
     63 H191       -2.7730    1.5880   -0.7950 hc        1 MVC      0.032700
     64 H192       -3.4290    0.1480   -1.6780 hc        1 MVC      0.032700
     65 H193       -3.3000    0.1240    0.1290 hc        1 MVC      0.032700
@<TRIPOS>BOND
     1    1    4 1   
     2    1   24 1   
     3    1   34 1   
     4    1   35 1   
     5    2    3 1   
     6    2    5 1   
     7    2   28 1   
     8    2   29 1   
     9    3    6 1   
    10    3   32 1   
    11    3   33 1   
    12    4    8 1   
    13    4   36 1   
    14    4   37 1   
    15    5    9 1   
    16    5   26 1   
    17    5   27 1   
    18    6   10 1   
    19    6   39 1   
    20    6   40 1   
    21    7   18 1   
    22    7   21 1   
    23    7   41 1   
    24    7   42 1   
    25    8   11 1   
    26    8   44 1   
    27    8   45 1   
    28    9   12 1   
    29    9   30 1   
    30    9   31 1   
    31   10   13 1   
    32   10   47 1   
    33   10   48 1   
    34   11   14 1   
    35   11   49 1   
    36   11   50 1   
    37   12   14 2   
    38   12   38 1   
    39   13   15 1   
    40   13   51 1   
    41   13   52 1   
    42   14   46 1   
    43   15   16 1   
    44   15   53 1   
    45   15   54 1   
    46   16   20 1   
    47   16   55 1   
    48   16   56 1   
    49   17   18 1   
    50   17   23 1   
    51   17   57 1   
    52   17   58 1   
    53   18   22 1   
    54   18   43 1   
    55   19   20 2   
    56   20   21 1   
    57   22   60 1   
    58   23   59 1   
    59   24   25 1   
    60   24   61 1   
    61   24   62 1   
    62   25   63 1   
    63   25   64 1   
    64   25   65 1   
@<TRIPOS>SUBSTRUCTURE
     1 MVC         1 TEMP              0 ****  ****    0 ROOT
