@<TRIPOS>MOLECULE
MVD
   77    79     1     0     0
SMALL
bcc


@<TRIPOS>ATOM
      1 O3          0.1700   -0.2320    0.1480 oh        1 MVD     -0.598800
      2 O25         4.8760   10.1090   10.1510 oh        1 MVD     -0.597800
      3 C1          1.4220    2.5650    0.1140 c3        1 MVD      0.185300
      4 C2          1.8850    1.3040   -0.6290 c3        1 MVD     -0.125700
      5 C3          1.5600    0.0480    0.1860 c3        1 MVD      0.151100
      6 C4          2.0750    0.1340    1.6200 c3        1 MVD     -0.074200
      7 C5          1.7120    1.4120    2.2990 ce        1 MVD     -0.093200
      8 C6          1.2220    1.4040    3.5560 cf        1 MVD     -0.109000
      9 C7          0.8270    2.5800    4.2950 cf        1 MVD     -0.156000
     10 C8          0.6520    2.6470    5.6260 c2        1 MVD     -0.072400
     11 C9          0.8350    1.5040    6.5740 c3        1 MVD     -0.045200
     12 C10         1.9580    2.6260    1.5180 ce        1 MVD     -0.094200
     13 C11         1.6100    1.8560    7.8340 c3        1 MVD     -0.071400
     14 C12         1.2220    3.1790    8.4690 c3        1 MVD     -0.065400
     15 C13         1.1850    4.2910    7.4330 c3        1 MVD     -0.045000
     16 C14         0.1790    3.8680    6.3290 c3        1 MVD     -0.038500
     17 C15        -0.1110    5.1620    5.5790 c3        1 MVD     -0.072400
     18 C16        -0.0050    6.2630    6.6410 c3        1 MVD     -0.076400
     19 C17         0.5410    5.6090    7.9200 c3        1 MVD     -0.054700
     20 C18         2.5710    4.5230    6.8590 c3        1 MVD     -0.082100
     21 C19         2.5910    3.6990    2.0050 c2        1 MVD     -0.175000
     22 C20         1.4070    6.4840    8.8190 c3        1 MVD     -0.052700
     23 C21         0.5230    7.2090    9.8210 c3        1 MVD     -0.093100
     24 C22         2.2850    7.4910    8.0910 c3        1 MVD     -0.077400
     25 C23         3.4970    7.8790    8.9160 c3        1 MVD     -0.079400
     26 C24         4.3430    8.8990    8.1870 c3        1 MVD     -0.064400
     27 C25         5.4890    9.4460    9.0430 c3        1 MVD      0.147800
     28 C26         6.4020    8.3330    9.5440 c3        1 MVD     -0.123100
     29 C27         6.2990   10.4520    8.2290 c3        1 MVD     -0.123100
     30 O1          1.8090    3.7480   -0.5770 oh        1 MVD     -0.595800
     31 C28         3.3540    1.3590   -0.9770 c3        1 MVD     -0.087100
     32 HO3        -0.2730    0.4380    0.6830 ho        1 MVD      0.403000
     33 H25         5.5910   10.4600   10.6940 ho        1 MVD      0.397000
     34 H1          0.2910    2.5460    0.1730 h1        1 MVD      0.037700
     35 H2          1.2930    1.2430   -1.5880 hc        1 MVD      0.058700
     36 H3          2.0220   -0.8490   -0.3220 h1        1 MVD      0.075700
     37 H41         1.6730   -0.7450    2.1920 hc        1 MVD      0.061700
     38 H42         3.1950    0.0460    1.6020 hc        1 MVD      0.061700
     39 H6          1.0790    0.4330    4.0640 ha        1 MVD      0.124000
     40 H7          0.6520    3.4840    3.6820 ha        1 MVD      0.134000
     41 H91        -0.1900    1.1410    6.8650 hc        1 MVD      0.046700
     42 H92         1.3590    0.6490    6.0710 hc        1 MVD      0.046700
     43 H111        2.7060    1.8730    7.5930 hc        1 MVD      0.040200
     44 H112        1.4540    1.0360    8.5850 hc        1 MVD      0.040200
     45 H121        1.9580    3.4340    9.2750 hc        1 MVD      0.041200
     46 H122        0.2130    3.0840    8.9510 hc        1 MVD      0.041200
     47 H14        -0.7840    3.5710    6.8470 hc        1 MVD      0.055700
     48 H151       -1.1260    5.1400    5.1140 hc        1 MVD      0.044700
     49 H152        0.6350    5.3350    4.7650 hc        1 MVD      0.044700
     50 H161        0.6620    7.0810    6.2750 hc        1 MVD      0.043700
     51 H162       -1.0070    6.7160    6.8450 hc        1 MVD      0.043700
     52 H17        -0.3530    5.3030    8.5400 hc        1 MVD      0.044700
     53 H181        2.9690    3.5850    6.4010 hc        1 MVD      0.037367
     54 H182        2.5350    5.3040    6.0610 hc        1 MVD      0.037367
     55 H183        3.2710    4.8570    7.6630 hc        1 MVD      0.037367
     56 H191        2.9680    3.7360    3.0360 ha        1 MVD      0.126500
     57 H192        2.7710    4.5930    1.3930 ha        1 MVD      0.126500
     58 H20         2.0820    5.7860    9.3970 hc        1 MVD      0.047700
     59 H211        1.1360    7.8830   10.4650 hc        1 MVD      0.034367
     60 H212       -0.2420    7.8250    9.2890 hc        1 MVD      0.034367
     61 H213       -0.0060    6.4780   10.4790 hc        1 MVD      0.034367
     62 H221        1.6850    8.4090    7.8540 hc        1 MVD      0.042700
     63 H222        2.6400    7.0650    7.1160 hc        1 MVD      0.042700
     64 H231        4.1090    6.9630    9.1300 hc        1 MVD      0.047700
     65 H232        3.1760    8.3060    9.9030 hc        1 MVD      0.047700
     66 H241        3.6970    9.7630    7.8750 hc        1 MVD      0.047200
     67 H242        4.7830    8.4440    7.2620 hc        1 MVD      0.047200
     68 H261        5.8630    7.7050   10.2930 hc        1 MVD      0.042367
     69 H262        6.7220    7.6890    8.6920 hc        1 MVD      0.042367
     70 H263        7.3090    8.7650   10.0300 hc        1 MVD      0.042367
     71 H271        7.1190   10.8830    8.8510 hc        1 MVD      0.042367
     72 H272        6.7470    9.9510    7.3390 hc        1 MVD      0.042367
     73 H273        5.6390   11.2840    7.8860 hc        1 MVD      0.042367
     74 HO1         1.5450    3.6250   -1.4970 ho        1 MVD      0.403000
     75 H281        3.5710    2.2770   -1.5760 hc        1 MVD      0.041700
     76 H282        3.6470    0.4620   -1.5740 hc        1 MVD      0.041700
     77 H283        3.9770    1.3930   -0.0500 hc        1 MVD      0.041700
@<TRIPOS>BOND
     1    1    5 1   
     2    1   32 1   
     3    2   27 1   
     4    2   33 1   
     5    3    4 1   
     6    3   12 1   
     7    3   30 1   
     8    3   34 1   
     9    4    5 1   
    10    4   31 1   
    11    4   35 1   
    12    5    6 1   
    13    5   36 1   
    14    6    7 1   
    15    6   37 1   
    16    6   38 1   
    17    7    8 2   
    18    7   12 1   
    19    8    9 1   
    20    8   39 1   
    21    9   10 2   
    22    9   40 1   
    23   10   11 1   
    24   10   16 1   
    25   11   13 1   
    26   11   41 1   
    27   11   42 1   
    28   12   21 2   
    29   13   14 1   
    30   13   43 1   
    31   13   44 1   
    32   14   15 1   
    33   14   45 1   
    34   14   46 1   
    35   15   16 1   
    36   15   19 1   
    37   15   20 1   
    38   16   17 1   
    39   16   47 1   
    40   17   18 1   
    41   17   48 1   
    42   17   49 1   
    43   18   19 1   
    44   18   50 1   
    45   18   51 1   
    46   19   22 1   
    47   19   52 1   
    48   20   53 1   
    49   20   54 1   
    50   20   55 1   
    51   21   56 1   
    52   21   57 1   
    53   22   23 1   
    54   22   24 1   
    55   22   58 1   
    56   23   59 1   
    57   23   60 1   
    58   23   61 1   
    59   24   25 1   
    60   24   62 1   
    61   24   63 1   
    62   25   26 1   
    63   25   64 1   
    64   25   65 1   
    65   26   27 1   
    66   26   66 1   
    67   26   67 1   
    68   27   28 1   
    69   27   29 1   
    70   28   68 1   
    71   28   69 1   
    72   28   70 1   
    73   29   71 1   
    74   29   72 1   
    75   29   73 1   
    76   30   74 1   
    77   31   75 1   
    78   31   76 1   
    79   31   77 1   
@<TRIPOS>SUBSTRUCTURE
     1 MVD         1 TEMP              0 ****  ****    0 ROOT
