@<TRIPOS>MOLECULE
molecule
   77    79     1     0     0
SMALL
bcc


@<TRIPOS>ATOM
      1 O3           0.0000     0.0000     0.0000 oh         1 MVD      -0.607800
      2 O25          4.8910    10.4990     9.9560 oh         1 MVD      -0.599800
      3 C1           1.4690     2.6230    -0.0310 c3         1 MVD       0.199300
      4 C2           1.9240     1.3070    -0.8100 c3         1 MVD      -0.075700
      5 C3           1.4410     0.0000     0.0000 c3         1 MVD       0.146100
      6 C4           1.9320     0.0000     1.5140 c3         1 MVD      -0.029200
      7 C5           1.5430     1.2810     2.2930 ce         1 MVD      -0.059200
      8 C6           0.9110     1.2960     3.5570 cf         1 MVD      -0.121000
      9 C7           0.4810     2.4210     4.4290 cf         1 MVD      -0.132000
     10 C8           0.4480     2.4900     5.7280 c2         1 MVD      -0.089400
     11 C9           0.8940     1.2940     6.7280 c3         1 MVD      -0.035200
     12 C10          1.9450     2.6060     1.4890 ce         1 MVD      -0.103200
     13 C11          2.0680     1.7530     7.7760 c3         1 MVD      -0.067400
     14 C12          1.7380     3.2080     8.4120 c3         1 MVD      -0.067400
     15 C13          1.2190     4.4110     7.3570 c3         1 MVD      -0.059000
     16 C14         -0.0150     3.7580     6.4760 c3         1 MVD      -0.042500
     17 C15         -0.5110     5.1190     5.6090 c3         1 MVD      -0.077400
     18 C16         -0.1610     6.2990     6.6110 c3         1 MVD      -0.075400
     19 C17          0.4090     5.6010     7.8920 c3         1 MVD      -0.034700
     20 C18          2.6540     4.6930     6.4510 c3         1 MVD      -0.061100
     21 C19          2.6750     3.6640     2.0530 c2         1 MVD      -0.202000
     22 C20          1.3610     6.5440     8.8550 c3         1 MVD      -0.064700
     23 C21          0.3050     7.3740     9.7420 c3         1 MVD      -0.102100
     24 C22          2.2070     7.7230     8.2280 c3         1 MVD      -0.064400
     25 C23          3.4730     8.0070     9.0420 c3         1 MVD      -0.079400
     26 C24          4.5840     8.6720     8.4110 c3         1 MVD      -0.056400
     27 C25          5.5580     9.5200     9.1950 c3         1 MVD       0.161800
     28 C26          6.3860     8.6240    10.0890 c3         1 MVD      -0.124600
     29 C27          6.5290    10.2720     8.2170 c3         1 MVD      -0.124600
     30 O1           1.9880     3.7960    -0.7400 oh         1 MVD      -0.614800
     31 C28          3.5000     1.2340    -1.0010 c3         1 MVD      -0.079100
     32 HO3         -0.3140    -0.7850    -0.4180 ho         1 MVD       0.397000
     33 H25          5.5240    11.0570    10.3760 ho         1 MVD       0.404000
     34 H1           0.3870     2.6650    -0.0450 h1         1 MVD       0.055700
     35 H2           1.4510     1.3030    -1.7850 hc         1 MVD       0.055700
     36 H3           1.8080    -0.8890    -0.4980 h1         1 MVD       0.038700
     37 H41          3.0110    -0.0960     1.5260 hc         1 MVD       0.051700
     38 H42          1.4980    -0.8550     2.0170 hc         1 MVD       0.051700
     39 H6           0.6980     0.3230     3.9820 ha         1 MVD       0.113000
     40 H7           0.1500     3.3030     3.8940 ha         1 MVD       0.123000
     41 H91          1.2610     0.4640     6.1360 hc         1 MVD       0.043200
     42 H92          0.0290     0.9720     7.2930 hc         1 MVD       0.043200
     43 H111         3.0140     1.8010     7.2510 hc         1 MVD       0.042200
     44 H112         2.1350     1.0240     8.5750 hc         1 MVD       0.042200
     45 H121         0.9690     3.0730     9.1630 hc         1 MVD       0.032700
     46 H122         2.6340     3.5640     8.9050 hc         1 MVD       0.032700
     47 H14         -0.8110     3.4780     7.1560 hc         1 MVD       0.056700
     48 H151         0.0530     5.2160     4.6890 hc         1 MVD       0.047700
     49 H152        -1.5760     5.0840     5.4150 hc         1 MVD       0.047700
     50 H161         0.5880     6.9490     6.1750 hc         1 MVD       0.045700
     51 H162        -1.0550     6.8580     6.8560 hc         1 MVD       0.045700
     52 H17         -0.4200     5.2220     8.4780 hc         1 MVD       0.058700
     53 H181         2.8890     3.8140     5.8640 hc         1 MVD       0.034367
     54 H182         2.5040     5.5390     5.7910 hc         1 MVD       0.034367
     55 H183         3.4730     4.9040     7.1280 hc         1 MVD       0.034367
     56 H191         2.9240     4.5320     1.4540 ha         1 MVD       0.125000
     57 H192         2.9820     3.6180     3.0910 ha         1 MVD       0.125000
     58 H20          1.9830     5.9280     9.4930 hc         1 MVD       0.059700
     59 H211        -0.3890     6.6880    10.2130 hc         1 MVD       0.031367
     60 H212         0.8340     7.9320    10.5040 hc         1 MVD       0.031367
     61 H213        -0.2410     8.0590     9.1050 hc         1 MVD       0.031367
     62 H221         1.5980     8.6180     8.2000 hc         1 MVD       0.041200
     63 H222         2.4900     7.4560     7.2170 hc         1 MVD       0.041200
     64 H231         3.8360     7.0570     9.4160 hc         1 MVD       0.041200
     65 H232         3.1810     8.6060     9.8960 hc         1 MVD       0.041200
     66 H241         4.1690     9.3080     7.6390 hc         1 MVD       0.040700
     67 H242         5.1670     7.9050     7.9160 hc         1 MVD       0.040700
     68 H261         5.7600     8.2170    10.8730 hc         1 MVD       0.041033
     69 H262         6.8020     7.8140     9.5020 hc         1 MVD       0.041033
     70 H263         7.1900     9.2000    10.5310 hc         1 MVD       0.041033
     71 H271         7.0260     9.5530     7.5770 hc         1 MVD       0.041033
     72 H272         7.2690    10.8170     8.7900 hc         1 MVD       0.041033
     73 H273         5.9620    10.9660     7.6070 hc         1 MVD       0.041033
     74 HO1          1.2710     4.2770    -1.1190 ho         1 MVD       0.399000
     75 H281         3.7900     0.2130    -1.2180 hc         1 MVD       0.038700
     76 H282         3.7940     1.8750    -1.8230 hc         1 MVD       0.038700
     77 H283         3.9890     1.5630    -0.0930 hc         1 MVD       0.038700
@<TRIPOS>BOND
     1     1     5 1
     2     1    32 1
     3     2    27 1
     4     2    33 1
     5     3     4 1
     6     3    12 1
     7     3    30 1
     8     3    34 1
     9     4     5 1
    10     4    31 1
    11     4    35 1
    12     5     6 1
    13     5    36 1
    14     6     7 1
    15     6    37 1
    16     6    38 1
    17     7     8 2
    18     7    12 1
    19     8     9 1
    20     8    39 1
    21     9    10 2
    22     9    40 1
    23    10    11 1
    24    10    16 1
    25    11    13 1
    26    11    41 1
    27    11    42 1
    28    12    21 2
    29    13    14 1
    30    13    43 1
    31    13    44 1
    32    14    15 1
    33    14    45 1
    34    14    46 1
    35    15    16 1
    36    15    19 1
    37    15    20 1
    38    16    17 1
    39    16    47 1
    40    17    18 1
    41    17    48 1
    42    17    49 1
    43    18    19 1
    44    18    50 1
    45    18    51 1
    46    19    22 1
    47    19    52 1
    48    20    53 1
    49    20    54 1
    50    20    55 1
    51    21    56 1
    52    21    57 1
    53    22    23 1
    54    22    24 1
    55    22    58 1
    56    23    59 1
    57    23    60 1
    58    23    61 1
    59    24    25 1
    60    24    62 1
    61    24    63 1
    62    25    26 1
    63    25    64 1
    64    25    65 1
    65    26    27 1
    66    26    66 1
    67    26    67 1
    68    27    28 1
    69    27    29 1
    70    28    68 1
    71    28    69 1
    72    28    70 1
    73    29    71 1
    74    29    72 1
    75    29    73 1
    76    30    74 1
    77    31    75 1
    78    31    76 1
    79    31    77 1
@<TRIPOS>SUBSTRUCTURE
     1 MVD         1 TEMP              0 ****  ****    0 ROOT
