@<TRIPOS>MOLECULE
MVF
   65    67     1     0     0
SMALL
bcc


@<TRIPOS>ATOM
      1 C1           0.0000     0.0000     0.0000 c3         1 MVF      -0.038700
      2 C2           1.5300     0.0000     0.0000 c3         1 MVF      -0.039900
      3 C3           2.0390     0.0000     1.4430 c3         1 MVF      -0.019900
      4 C4           1.5280     1.2490     2.1640 c3         1 MVF      -0.026400
      5 C5          -0.0010     1.2490     2.1640 c3         1 MVF      -0.019900
      6 C6          -0.5100     1.2490     0.7210 c3         1 MVF      -0.039900
      7 N7          -1.9720    -0.1380    -1.4460 n7         1 MVF      -0.525200
      8 C8          -0.5090     0.0010    -1.4430 c3         1 MVF       0.050500
      9 C9          -0.1260     1.2960    -2.1120 c          1 MVF       0.619100
     10 O0          -0.9070     2.2230    -2.1290 o          1 MVF      -0.575100
     11 N11          1.0850     1.4240    -2.6890 nj         1 MVF      -0.179800
     12 C12          1.8340     2.5020    -3.3500 cy         1 MVF      -0.033300
     13 C13          0.9730     3.3950    -4.2050 c          1 MVF       0.562100
     14 O14         -0.2180     3.1850    -4.2930 o          1 MVF      -0.591100
     15 N15          1.5250     4.4280    -4.8720 ns         1 MVF      -0.206900
     16 C16          0.6890     5.2960    -5.7030 c3         1 MVF       0.103300
     17 C17          1.5430     6.3640    -6.3340 ca         1 MVF      -0.066300
     18 C22          1.7420     7.5650    -5.6750 ca         1 MVF      -0.054000
     19 C21          2.5230     8.5480    -6.2480 ca         1 MVF      -0.072000
     20 C20          3.1140     8.3280    -7.4930 ca         1 MVF      -0.220900
     21 C19          2.9110     7.1160    -8.1510 ca         1 MVF      -0.072000
     22 C18          2.1310     6.1390    -7.5660 ca         1 MVF      -0.054000
     23 C23          3.9530     9.3790    -8.1120 ce         1 MVF       0.205800
     24 N25          4.5350     9.1600    -9.3420 nz         1 MVF       0.189400
     25 N24          4.1410    10.5110    -7.4960 n2         1 MVF      -0.473100
     26 C26          2.5780     1.4230    -4.1490 cy         1 MVF      -0.050400
     27 C27          2.2400     0.5460    -2.9320 cy         1 MVF       0.044000
     28 C28         -2.3670    -1.5440    -1.2830 c3         1 MVF       0.077800
     29 C29         -3.8640    -1.6630    -1.4210 c          1 MVF       0.294100
     30 O30         -4.5330    -0.6750    -1.6340 o          1 MVF      -0.362100
     31 N30         -4.4570    -2.8680    -1.3080 nz         1 MVF       0.199600
     32 H1          -0.3590    -0.8830     0.5140 hc         1 MVF       0.023700
     33 H21C         1.8900     0.8860    -0.5090 hc         1 MVF       0.026200
     34 H22C         1.8900    -0.8860    -0.5090 hc         1 MVF       0.026200
     35 H61C        -0.1450     2.1330     0.2110 hc         1 MVF       0.026200
     36 H62C        -1.5930     1.2470     0.7210 hc         1 MVF       0.026200
     37 H8          -0.0670    -0.8280    -1.9820 h1         1 MVF       0.014700
     38 H31C         3.1230     0.0030     1.4410 hc         1 MVF       0.018450
     39 H32C         1.6760    -0.8840     1.9520 hc         1 MVF       0.018450
     40 H41C         1.8880     2.1330     1.6520 hc         1 MVF       0.021200
     41 H42C         1.8880     1.2470     3.1860 hc         1 MVF       0.021200
     42 H51C        -0.3600     0.3620     2.6720 hc         1 MVF       0.018450
     43 H52C        -0.3610     2.1340     2.6730 hc         1 MVF       0.018450
     44 H7          -2.3390     0.2140    -2.3080 hn         1 MVF       0.290800
     45 H281        -2.0660    -1.8930    -0.3030 h1         1 MVF       0.045200
     46 H282        -1.8860    -2.1450    -2.0450 h1         1 MVF       0.045200
     47 H12          2.4840     3.0360    -2.6670 h1         1 MVF       0.053700
     48 H271         1.9530    -0.4620    -3.2050 h1         1 MVF       0.034200
     49 H272         2.9860     0.6050    -2.1490 h1         1 MVF       0.034200
     50 H261         3.6380     1.6200    -4.2570 hc         1 MVF       0.044700
     51 H262         2.0640     1.1230    -5.0540 hc         1 MVF       0.044700
     52 H15          2.5070     4.6080    -4.7900 hn         1 MVF       0.173500
     53 H161        -0.0730     5.7590    -5.0880 h1         1 MVF       0.042700
     54 H162         0.2170     4.7060    -6.4800 h1         1 MVF       0.042700
     55 H18          1.9730     5.1960    -8.0760 ha         1 MVF       0.131500
     56 H22          1.2830     7.7340    -4.7090 ha         1 MVF       0.131500
     57 H19          3.3690     6.9390    -9.1170 ha         1 MVF       0.102500
     58 H21          2.6780     9.4880    -5.7320 ha         1 MVF       0.102500
     59 H24          3.7190    10.6720    -6.6030 hn         1 MVF       0.381400
     60 H25A         3.8210     8.9870   -10.0230 hn         1 MVF       0.223133
     61 H25B         5.0630     9.9660    -9.6110 hn         1 MVF       0.223133
     62 H301        -4.1120    -3.4770    -2.0240 hn         1 MVF       0.247800
     63 H302        -5.4470    -2.7630    -1.4080 hn         1 MVF       0.247800
     64 H253         5.1370     8.3620    -9.2890 hn         1 MVF       0.223133
     65 H303        -4.2610    -3.2530    -0.4050 hn         1 MVF       0.247800
@<TRIPOS>BOND
     1     1     2 1   
     2     1     6 1   
     3     1     8 1   
     4     1    32 1   
     5     2     3 1   
     6     2    33 1   
     7     2    34 1   
     8     3     4 1   
     9     3    38 1   
    10     3    39 1   
    11     4     5 1   
    12     4    40 1   
    13     4    41 1   
    14     5     6 1   
    15     5    42 1   
    16     5    43 1   
    17     6    35 1   
    18     6    36 1   
    19     7     8 1   
    20     7    28 1   
    21     7    44 1   
    22     8     9 1   
    23     8    37 1   
    24     9    10 2   
    25     9    11 1   
    26    11    12 1   
    27    11    27 1   
    28    12    13 1   
    29    12    26 1   
    30    12    47 1   
    31    13    14 2   
    32    13    15 1   
    33    15    16 1   
    34    15    52 1   
    35    16    17 1   
    36    16    53 1   
    37    16    54 1   
    38    17    18 ar  
    39    17    22 ar  
    40    18    19 ar  
    41    18    56 1   
    42    19    20 ar  
    43    19    58 1   
    44    20    21 ar  
    45    20    23 1   
    46    21    22 ar  
    47    21    57 1   
    48    22    55 1   
    49    23    24 1   
    50    23    25 2   
    51    24    60 1   
    52    24    61 1   
    53    24    64 1   
    54    25    59 1   
    55    26    27 1   
    56    26    50 1   
    57    26    51 1   
    58    27    48 1   
    59    27    49 1   
    60    28    29 1   
    61    28    45 1   
    62    28    46 1   
    63    29    30 2   
    64    29    31 1   
    65    31    62 1   
    66    31    63 1   
    67    31    65 1   
@<TRIPOS>SUBSTRUCTURE
     1 MVF         1 TEMP              0 ****  ****    0 ROOT
