@<TRIPOS>MOLECULE
molecule
   65    67     1     0     0
SMALL
bcc


@<TRIPOS>ATOM
      1 C1           0.0000     0.0000     0.0000 c3         1 MVF      -0.056700
      2 C2           1.5300     0.0000     0.0000 c3         1 MVF      -0.081400
      3 C3           2.0390     0.0000     1.4430 c3         1 MVF      -0.078400
      4 C4           1.5280     1.2490     2.1640 c3         1 MVF      -0.081400
      5 C5          -0.0010     1.2490     2.1640 c3         1 MVF      -0.078400
      6 C6          -0.5100     1.2490     0.7210 c3         1 MVF      -0.081400
      7 N7          -1.9720    -0.1380    -1.4460 n7         1 MVF      -0.771200
      8 C8          -0.5090     0.0010    -1.4430 c3         1 MVF       0.102500
      9 C9          -0.1260     1.2960    -2.1120 c          1 MVF       0.690100
     10 O0          -0.9070     2.2230    -2.1290 o          1 MVF      -0.537100
     11 N11          1.0850     1.4240    -2.6890 nj         1 MVF      -0.508800
     12 C12          1.8340     2.5020    -3.3500 cy         1 MVF       0.040700
     13 C13          0.9730     3.3950    -4.2050 c          1 MVF       0.650100
     14 O14         -0.2180     3.1850    -4.2930 o          1 MVF      -0.553100
     15 N15          1.5250     4.4280    -4.8720 ns         1 MVF      -0.593900
     16 C16          0.6890     5.2960    -5.7030 c3         1 MVF       0.154300
     17 C17          1.5430     6.3640    -6.3340 ca         1 MVF      -0.059300
     18 C22          1.7420     7.5650    -5.6750 ca         1 MVF      -0.101000
     19 C21          2.5230     8.5480    -6.2480 ca         1 MVF      -0.085000
     20 C20          3.1140     8.3280    -7.4930 ca         1 MVF      -0.188900
     21 C19          2.9110     7.1160    -8.1510 ca         1 MVF      -0.085000
     22 C18          2.1310     6.1390    -7.5660 ca         1 MVF      -0.101000
     23 C23          3.9530     9.3790    -8.1120 ce         1 MVF       0.538800
     24 N25          4.5350     9.1600    -9.3420 nz         1 MVF      -0.801600
     25 N24          4.1410    10.5110    -7.4960 n2         1 MVF      -0.674100
     26 C26          2.5780     1.4230    -4.1490 cy         1 MVF      -0.113400
     27 C27          2.2400     0.5460    -2.9320 cy         1 MVF       0.089000
     28 C28         -2.3670    -1.5440    -1.2830 c3         1 MVF       0.087800
     29 C29         -3.8640    -1.6630    -1.4210 c          1 MVF       0.466100
     30 O30         -4.5330    -0.6750    -1.6340 o          1 MVF      -0.360100
     31 N30         -4.4570    -2.8680    -1.3080 nz         1 MVF      -0.685400
     32 H1          -0.3590    -0.8830     0.5140 hc         1 MVF       0.045700
     33 H21C         1.8900    -0.8860    -0.5090 hc         1 MVF       0.051950
     34 H22C         1.8900     0.8860    -0.5090 hc         1 MVF       0.051950
     35 H61C        -0.1450     2.1330     0.2110 hc         1 MVF       0.051950
     36 H62C        -1.5930     1.2470     0.7210 hc         1 MVF       0.051950
     37 H8          -0.0670    -0.8280    -1.9820 h1         1 MVF       0.033700
     38 H31C         1.6760    -0.8840     1.9520 hc         1 MVF       0.047950
     39 H32C         3.1230     0.0030     1.4410 hc         1 MVF       0.047950
     40 H41C         1.8880     1.2470     3.1860 hc         1 MVF       0.050200
     41 H42C         1.8880     2.1330     1.6520 hc         1 MVF       0.050200
     42 H51C        -0.3600     0.3620     2.6720 hc         1 MVF       0.047950
     43 H52C        -0.3610     2.1340     2.6730 hc         1 MVF       0.047950
     44 H7          -2.3390     0.2140    -2.3080 hn         1 MVF       0.395800
     45 H281        -1.8860    -2.1450    -2.0450 h1         1 MVF       0.079200
     46 H282        -2.0660    -1.8930    -0.3030 h1         1 MVF       0.079200
     47 H12          2.4840     3.0360    -2.6670 h1         1 MVF       0.085700
     48 H271         2.9860     0.6050    -2.1490 h1         1 MVF       0.063700
     49 H272         1.9530    -0.4620    -3.2050 h1         1 MVF       0.063700
     50 H261         2.0640     1.1230    -5.0540 hc         1 MVF       0.078200
     51 H262         3.6380     1.6200    -4.2570 hc         1 MVF       0.078200
     52 H15          2.5070     4.6080    -4.7900 hn         1 MVF       0.314500
     53 H161        -0.0730     5.7590    -5.0880 h1         1 MVF       0.075200
     54 H162         0.2170     4.7060    -6.4800 h1         1 MVF       0.075200
     55 H18          1.9730     5.1960    -8.0760 ha         1 MVF       0.165500
     56 H22          1.2830     7.7340    -4.7090 ha         1 MVF       0.165500
     57 H19          3.3690     6.9390    -9.1170 ha         1 MVF       0.143000
     58 H21          2.6780     9.4880    -5.7320 ha         1 MVF       0.143000
     59 H24          4.7090    11.2220    -7.9140 hn         1 MVF       0.438400
     60 H25A         5.0630     9.9660    -9.6110 hn         1 MVF       0.466800
     61 H25B         5.1430     8.3670    -9.2870 hn         1 MVF       0.466800
     62 H301        -4.1140    -3.4770    -2.0250 hn         1 MVF       0.479467
     63 H302        -5.4470    -2.7630    -1.4060 hn         1 MVF       0.479467
     64 H253         3.8210     8.9940   -10.0240 hn         1 MVF       0.466800
     65 H303        -4.2400    -3.2650    -0.4150 hn         1 MVF       0.479467
@<TRIPOS>BOND
     1     1     2 1
     2     1     6 1
     3     1     8 1
     4     2     3 1
     5     3     4 1
     6     4     5 1
     7     5     6 1
     8     7     8 1
     9     7    28 1
    10     8     9 1
    11     9    10 2
    12     9    11 1
    13    11    12 1
    14    11    27 1
    15    12    13 1
    16    12    26 1
    17    13    14 2
    18    13    15 1
    19    15    16 1
    20    16    17 1
    21    17    22 ar
    22    17    18 ar
    23    22    21 ar
    24    21    20 ar
    25    20    19 ar
    26    20    23 1
    27    19    18 ar
    28    23    25 2
    29    23    24 1
    30    26    27 1
    31    28    29 1
    32    29    30 2
    33    29    31 1
    34     1    32 1
    35     2    33 1
    36     2    34 1
    37     6    35 1
    38     6    36 1
    39     8    37 1
    40     3    38 1
    41     3    39 1
    42     4    40 1
    43     4    41 1
    44     5    42 1
    45     5    43 1
    46     7    44 1
    47    28    45 1
    48    28    46 1
    49    12    47 1
    50    27    48 1
    51    27    49 1
    52    26    50 1
    53    26    51 1
    54    15    52 1
    55    16    53 1
    56    16    54 1
    57    22    55 1
    58    18    56 1
    59    21    57 1
    60    19    58 1
    61    25    59 1
    62    24    60 1
    63    24    61 1
    64    31    62 1
    65    31    63 1
    66    64    24 1
    67    65    31 1
@<TRIPOS>SUBSTRUCTURE
     1 MVF         1 TEMP              0 ****  ****    0 ROOT
