@<TRIPOS>MOLECULE
MVG
   46    49     1     0     0
SMALL
bcc


@<TRIPOS>ATOM
      1 O2           0.0000     0.0000     0.0000 o          1 MVG      -0.878800
      2 C17          1.3470     0.0000     0.0000 c          1 MVG       0.968200
      3 O1           1.9550     0.0000     1.0520 o          1 MVG      -0.878800
      4 C16          2.0860     0.0000    -1.2790 ca         1 MVG      -0.071600
      5 C15          1.3880     0.0060    -2.4900 ca         1 MVG      -0.086000
      6 C14          2.0770     0.0070    -3.6810 ca         1 MVG      -0.104500
      7 C18          3.4830    -0.0000    -1.2790 ca         1 MVG      -0.086000
      8 C19          4.1700     0.0000    -2.4720 ca         1 MVG      -0.104500
      9 C13          3.4730     0.0000    -3.6800 cp         1 MVG      -0.214500
     10 C12          4.2130     0.0010    -4.9650 cp         1 MVG       0.394500
     11 N4           5.5390    -0.1110    -4.9680 nb         1 MVG      -0.578000
     12 C20          3.5230     0.1120    -6.1690 ca         1 MVG       0.248900
     13 N5           4.1830     0.1110    -7.3130 nb         1 MVG      -0.536000
     14 C21          5.4990     0.0050    -7.3190 ca         1 MVG       0.249900
     15 C11          6.1970    -0.1110    -6.1190 ca         1 MVG       0.235500
     16 N3           7.5870    -0.2270    -6.1280 na         1 MVG       0.484100
     17 C6           8.4240     0.1280    -5.0970 ca         1 MVG      -0.111200
     18 C5           8.2170     0.6640    -3.8310 ca         1 MVG      -0.199000
     19 N2           8.3530    -0.7290    -7.1840 nc         1 MVG      -0.654100
     20 C10          9.6180    -0.7030    -6.8730 cd         1 MVG       0.454800
     21 C7           9.7360    -0.1550    -5.5250 ca         1 MVG      -0.326900
     22 C8          10.8180     0.1090    -4.6770 ca         1 MVG       0.018000
     23 C9          10.5980     0.6400    -3.4410 ca         1 MVG      -0.223000
     24 C4           9.3000     0.9150    -3.0080 ca         1 MVG       0.101600
     25 N1           9.0940     1.4570    -1.7370 nu         1 MVG      -0.417600
     26 C2          10.2380     1.7360    -0.8650 c3         1 MVG       0.130500
     27 C3           9.8650     2.8380     0.1290 c3         1 MVG      -0.015100
     28 C1          10.6170     0.4660    -0.1010 c3         1 MVG      -0.015100
     29 H2           0.3050     0.0110    -2.4910 ha         1 MVG       0.128000
     30 H3           1.5360     0.0100    -4.6190 ha         1 MVG       0.097000
     31 H4           4.0250    -0.0010    -0.3420 ha         1 MVG       0.128000
     32 H5           5.2540    -0.0030    -2.4720 ha         1 MVG       0.097000
     33 H6           2.4430     0.1990    -6.1680 h4         1 MVG       0.005100
     34 H7           6.0370     0.0040    -8.2590 h4         1 MVG       0.003100
     35 H8           7.2120     0.8800    -3.4890 ha         1 MVG       0.145000
     36 H9          10.4370    -1.0310    -7.5020 h4         1 MVG       0.005800
     37 H10         11.8290    -0.1010    -5.0050 ha         1 MVG       0.091000
     38 H11         11.4370     0.8410    -2.7860 ha         1 MVG       0.116000
     39 H12          8.1660     1.6710    -1.4290 hn         1 MVG       0.303800
     40 H13         11.0790     2.0610    -1.4650 h1         1 MVG       0.032700
     41 H14         10.7280     3.0840     0.7360 hc         1 MVG       0.010200
     42 H15          9.5420     3.7190    -0.4130 hc         1 MVG       0.010200
     43 H16          9.0610     2.4920     0.7670 hc         1 MVG       0.010200
     44 H17          9.7820     0.1500     0.5120 hc         1 MVG       0.010200
     45 H18         10.8650    -0.3190    -0.8050 hc         1 MVG       0.010200
     46 H19         11.4730     0.6670     0.5320 hc         1 MVG       0.010200
@<TRIPOS>BOND
     1     1     2 1   
     2     2     3 1   
     3     2     4 1   
     4     4     5 ar  
     5     4     7 ar  
     6     5     6 ar  
     7     5    29 1   
     8     6     9 ar  
     9     6    30 1   
    10     7     8 ar  
    11     7    31 1   
    12     8     9 ar  
    13     8    32 1   
    14     9    10 1   
    15    10    11 ar  
    16    10    12 ar  
    17    11    15 ar  
    18    12    13 ar  
    19    12    33 1   
    20    13    14 ar  
    21    14    15 ar  
    22    14    34 1   
    23    15    16 1   
    24    16    17 1   
    25    16    19 1   
    26    17    18 ar  
    27    17    21 ar  
    28    18    24 ar  
    29    18    35 1   
    30    19    20 2   
    31    20    21 1   
    32    20    36 1   
    33    21    22 ar  
    34    22    23 ar  
    35    22    37 1   
    36    23    24 ar  
    37    23    38 1   
    38    24    25 1   
    39    25    26 1   
    40    25    39 1   
    41    26    27 1   
    42    26    28 1   
    43    26    40 1   
    44    27    41 1   
    45    27    42 1   
    46    27    43 1   
    47    28    44 1   
    48    28    45 1   
    49    28    46 1   
@<TRIPOS>SUBSTRUCTURE
     1 MVG         1 TEMP              0 ****  ****    0 ROOT
