@<TRIPOS>MOLECULE
molecule
   46    49     1     0     0
SMALL
bcc


@<TRIPOS>ATOM
      1 O2           0.0000     0.0000     0.0000 o          1 MVG      -0.830300
      2 C17          1.3470     0.0000     0.0000 c          1 MVG       0.877200
      3 O1           1.9550     0.0000     1.0520 o          1 MVG      -0.830300
      4 C16          2.0860     0.0000    -1.2790 ca         1 MVG      -0.073600
      5 C15          1.3880     0.0060    -2.4900 ca         1 MVG      -0.113000
      6 C14          2.0770     0.0070    -3.6810 ca         1 MVG      -0.121500
      7 C18          3.4830    -0.0000    -1.2790 ca         1 MVG      -0.113000
      8 C19          4.1700     0.0000    -2.4720 ca         1 MVG      -0.121500
      9 C13          3.4730     0.0000    -3.6800 cp         1 MVG      -0.201500
     10 C12          4.2130     0.0010    -4.9650 cp         1 MVG       0.429500
     11 N4           5.5390    -0.1110    -4.9680 nb         1 MVG      -0.702000
     12 C20          3.5230     0.1120    -6.1690 ca         1 MVG       0.262900
     13 N5           4.1830     0.1110    -7.3130 nb         1 MVG      -0.640000
     14 C21          5.4990     0.0050    -7.3190 ca         1 MVG       0.265900
     15 C11          6.1970    -0.1110    -6.1190 ca         1 MVG       0.444500
     16 N3           7.5870    -0.2270    -6.1280 na         1 MVG       0.037100
     17 C6           8.4240     0.1280    -5.0970 ca         1 MVG       0.048800
     18 C5           8.2170     0.6640    -3.8310 ca         1 MVG      -0.222000
     19 N2           8.3530    -0.7290    -7.1840 nc         1 MVG      -0.511100
     20 C10          9.6180    -0.7030    -6.8730 cd         1 MVG       0.393800
     21 C7           9.7360    -0.1550    -5.5250 ca         1 MVG      -0.310900
     22 C8          10.8180     0.1090    -4.6770 ca         1 MVG      -0.028000
     23 C9          10.5980     0.6400    -3.4410 ca         1 MVG      -0.233000
     24 C4           9.3000     0.9150    -3.0080 ca         1 MVG       0.237600
     25 N1           9.0940     1.4570    -1.7370 nu         1 MVG      -0.816600
     26 C2          10.2380     1.7360    -0.8650 c3         1 MVG       0.237500
     27 C3           9.8650     2.8380     0.1290 c3         1 MVG      -0.110600
     28 C1          10.6170     0.4660    -0.1010 c3         1 MVG      -0.110600
     29 H2           0.3050     0.0110    -2.4910 ha         1 MVG       0.155000
     30 H3           1.5360     0.0100    -4.6190 ha         1 MVG       0.118500
     31 H4           4.0250    -0.0010    -0.3420 ha         1 MVG       0.155000
     32 H5           5.2540    -0.0030    -2.4720 ha         1 MVG       0.118500
     33 H6           2.4430     0.1990    -6.1680 h4         1 MVG       0.040100
     34 H7           6.0370     0.0040    -8.2590 h4         1 MVG       0.039100
     35 H8           7.2120     0.8800    -3.4890 ha         1 MVG       0.165000
     36 H9          10.4370    -1.0310    -7.5020 h4         1 MVG       0.055800
     37 H10         11.8290    -0.1010    -5.0050 ha         1 MVG       0.122000
     38 H11         11.4370     0.8410    -2.7860 ha         1 MVG       0.130000
     39 H12          8.1660     1.6710    -1.4290 hn         1 MVG       0.448800
     40 H13         11.0790     2.0610    -1.4650 h1         1 MVG       0.052700
     41 H14         10.7280     3.0840     0.7360 hc         1 MVG       0.042033
     42 H15          9.5420     3.7190    -0.4130 hc         1 MVG       0.042033
     43 H16          9.0610     2.4920     0.7670 hc         1 MVG       0.042033
     44 H17          9.7820     0.1500     0.5120 hc         1 MVG       0.042033
     45 H18         10.8650    -0.3190    -0.8050 hc         1 MVG       0.042033
     46 H19         11.4730     0.6670     0.5320 hc         1 MVG       0.042033
@<TRIPOS>BOND
     1    22    23 ar
     2    22    21 ar
     3    23    24 ar
     4    21    20 1
     5    21    17 ar
     6    20    19 2
     7    24    25 1
     8    24    18 ar
     9    25    26 1
    10    17    18 ar
    11    17    16 1
    12    19    16 1
    13    28    26 1
    14    26    27 1
    15    16    15 1
    16    15    11 ar
    17    15    14 ar
    18    11    10 ar
    19    14    13 ar
    20     6     5 ar
    21     6     9 ar
    22    10     9 1
    23    10    12 ar
    24    13    12 ar
    25     5     4 ar
    26     9     8 ar
    27     3     2 1
    28     4     2 1
    29     4     7 ar
    30     8     7 ar
    31     2     1 1
    32     5    29 1
    33     6    30 1
    34     7    31 1
    35     8    32 1
    36    12    33 1
    37    14    34 1
    38    18    35 1
    39    20    36 1
    40    22    37 1
    41    23    38 1
    42    25    39 1
    43    26    40 1
    44    27    41 1
    45    27    42 1
    46    27    43 1
    47    28    44 1
    48    28    45 1
    49    28    46 1
@<TRIPOS>SUBSTRUCTURE
     1 MVG         1 TEMP              0 ****  ****    0 ROOT
