@<TRIPOS>MOLECULE
MVH
   24    24     1     0     0
SMALL
bcc


@<TRIPOS>ATOM
      1 OAI          0.0000     0.0000     0.0000 o          1 MVH      -0.608000
      2 PAN          1.6100     0.0000     0.0000 p5         1 MVH       1.368000
      3 OAJ          2.1470     0.0000     1.5180 os         1 MVH      -0.685000
      4 CAC          1.9290     1.0870     2.4210 c3         1 MVH       0.179000
      5 OAF          2.1040     1.2070    -0.6980 o          1 MVH      -0.608000
      6 OAK          2.1460    -1.3160    -0.7580 os         1 MVH      -0.526000
      7 CAM          1.8720    -1.4190    -2.0730 c2         1 MVH       0.451000
      8 CAD          1.3710    -2.7220    -2.6400 c3         1 MVH      -0.177000
      9 CAG          2.0460    -0.3580    -2.8810 c2         1 MVH      -0.589000
     10 CAL          1.6040    -0.4120    -4.2270 c3         1 MVH       0.281000
     11 OAE          0.9700    -1.3730    -4.6210 o          1 MVH      -0.547000
     12 NAH          1.8860     0.6010    -5.0700 n7         1 MVH      -0.024000
     13 CAA          1.4290     0.5450    -6.4610 c3         1 MVH      -0.064000
     14 H2           2.6180     1.8910     2.1910 h1         1 MVH      -0.006333
     15 H3           2.0920     0.7510     3.4370 h1         1 MVH      -0.006333
     16 H4           0.9110     1.4440     2.3170 h1         1 MVH      -0.006333
     17 H6           1.4200    -3.4900    -1.8770 hc         1 MVH       0.070333
     18 H7           0.3450    -2.6030    -2.9670 hc         1 MVH       0.070333
     19 H8           1.9870    -3.0100    -3.4830 hc         1 MVH       0.070333
     20 H9           2.6660    -0.7970    -3.6520 DU         1 MVH       0.160000
     21 H11          2.3900     1.4010    -4.7410 hn         1 MVH       0.104000
     22 H12          1.8680    -0.3150    -6.9520 h1         1 MVH       0.031000
     23 H13          0.3490     0.4600    -6.4830 h1         1 MVH       0.031000
     24 H14          1.7310     1.4480    -6.9780 h1         1 MVH       0.031000
@<TRIPOS>BOND
     1     1     2 1   
     2     2     3 1   
     3     2     5 1   
     4     2     6 1   
     5     3     4 1   
     6     4    14 1   
     7     4    15 1   
     8     4    16 1   
     9     6     7 1   
    10     7     8 1   
    11     7     9 1   
    12     8    17 1   
    13     8    18 1   
    14     8    19 1   
    15     9    10 1   
    16     9    20 1   
    17    10    11 1   
    18    10    12 1   
    19    10    20 1   
    20    12    13 1   
    21    12    21 1   
    22    13    22 1   
    23    13    23 1   
    24    13    24 1   
@<TRIPOS>SUBSTRUCTURE
     1 MVH         1 TEMP              0 ****  ****    0 ROOT
