@<TRIPOS>MOLECULE
molecule
   24    23     1     0     0
SMALL
bcc


@<TRIPOS>ATOM
      1 OAI          0.0000     0.0000     0.0000 o          1 MVH      -0.808000
      2 PAN          1.6100     0.0000     0.0000 p5         1 MVH       1.344800
      3 OAJ          2.1470     0.0000     1.5180 os         1 MVH      -0.607200
      4 CAC          1.9290     1.0870     2.4210 c3         1 MVH       0.224700
      5 OAF          2.1040     1.2070    -0.6980 o          1 MVH      -0.808000
      6 OAK          2.1460    -1.3160    -0.7580 os         1 MVH      -0.468500
      7 CAM          1.8720    -1.4190    -2.0730 c2         1 MVH       0.249900
      8 CAD          1.3710    -2.7220    -2.6400 c3         1 MVH      -0.052900
      9 CAG          2.0460    -0.3580    -2.8810 ce         1 MVH      -0.416200
     10 CAL          1.6040    -0.4120    -4.2270 c          1 MVH       0.698300
     11 OAE          0.9700    -1.3730    -4.6210 o          1 MVH      -0.671100
     12 NAH          1.8860     0.6010    -5.0700 ns         1 MVH      -0.594900
     13 CAA          1.4290     0.5450    -6.4610 c3         1 MVH       0.108300
     14 H2           0.9140     1.4500     2.3100 h1         1 MVH       0.014033
     15 H3           2.0820     0.7480     3.4380 h1         1 MVH       0.014033
     16 H4           2.6250     1.8860     2.1980 h1         1 MVH       0.014033
     17 H6           1.9860    -3.0090    -3.4840 hc         1 MVH       0.051700
     18 H7           0.3440    -2.6030    -2.9640 hc         1 MVH       0.051700
     19 H8           1.4220    -3.4900    -1.8780 hc         1 MVH       0.051700
     20 H9           2.4060     0.5780    -2.4710 ha         1 MVH       0.211000
     21 H11          2.4390     1.3740    -4.7560 hn         1 MVH       0.316500
     22 H12          1.8680    -0.3160    -6.9510 h1         1 MVH       0.026033
     23 H13          0.3490     0.4610    -6.4830 h1         1 MVH       0.026033
     24 H14          1.7310     1.4480    -6.9780 h1         1 MVH       0.026033
@<TRIPOS>BOND
     1     4     3 1
     2     3     2 1
     3     5     2 1
     4     2     6 1
     5     2     1 1
     6     6     7 1
     7     8     7 1
     8     7     9 2
     9     9    10 1
    10    10    11 2
    11    10    12 1
    12    12    13 1
    13     4    14 1
    14     4    15 1
    15     4    16 1
    16     8    17 1
    17     8    18 1
    18     8    19 1
    19     9    20 1
    20    12    21 1
    21    13    22 1
    22    13    23 1
    23    13    24 1
@<TRIPOS>SUBSTRUCTURE
     1 MVH         1 TEMP              0 ****  ****    0 ROOT
