@<TRIPOS>MOLECULE
MVJ
   44    47     1     0     0
SMALL
bcc


@<TRIPOS>ATOM
      1 C1           0.0000     0.0000     0.0000 ca         1 MVJ      -0.070000
      2 C2           1.3790     0.0000     0.0000 ca         1 MVJ      -0.115000
      3 C3           2.0790     0.0000     1.2050 ca         1 MVJ      -0.106400
      4 C4           1.3660    -0.0020     2.3980 ca         1 MVJ      -0.138300
      5 C5          -0.0120    -0.0020     2.3950 ca         1 MVJ      -0.035000
      6 C6          -0.7000    -0.0010     1.1940 ca         1 MVJ      -0.104300
      7 C7          -2.2060    -0.0010     1.1870 c3         1 MVJ       0.011600
      8 C8          -2.7120     1.2490     0.4640 c3         1 MVJ      -0.024400
      9 C9          -4.2430     1.2490     0.4560 c3         1 MVJ      -0.023400
     10 C10         -4.7500     0.0000    -0.2680 c3         1 MVJ      -0.025400
     11 C11         -4.2430    -1.2490     0.4550 c3         1 MVJ      -0.023400
     12 C12         -2.7130    -1.2490     0.4620 c3         1 MVJ      -0.024400
     13 C13          2.3930    -0.0040     3.5010 c3         1 MVJ      -0.084700
     14 C14          2.2560    -1.2610     4.3580 c3         1 MVJ      -0.038400
     15 C15          3.2850    -1.2120     5.4920 c3         1 MVJ       0.193400
     16 O16          3.0950    -0.0150     6.2500 os         1 MVJ      -0.406600
     17 C17          3.2810     1.1880     5.5020 c3         1 MVJ       0.193400
     18 C18          2.2540     1.2440     4.3680 c3         1 MVJ      -0.038400
     19 C19          3.7200    -0.0000     2.7810 c          1 MVJ       0.617500
     20 O20          4.8200    -0.0000     3.2930 o          1 MVJ      -0.649500
     21 N21          3.4510     0.0010     1.4630 ns         1 MVJ      -0.006100
     22 H1          -0.5390     0.0010    -0.9400 ha         1 MVJ       0.113000
     23 H2           1.9190     0.0010    -0.9390 ha         1 MVJ       0.106000
     24 H5          -0.5570    -0.0030     3.3310 ha         1 MVJ       0.111000
     25 H7          -2.5760    -0.0020     2.2050 hc         1 MVJ       0.033700
     26 H8          -2.3550     2.1320     0.9790 hc         1 MVJ       0.017950
     27 H8A         -2.3480     1.2470    -0.5560 hc         1 MVJ       0.017950
     28 H9          -4.6000     2.1330    -0.0580 hc         1 MVJ       0.014200
     29 H9A         -4.6080     1.2450     1.4760 hc         1 MVJ       0.014200
     30 H10         -4.3810     0.0010    -1.2870 hc         1 MVJ       0.013200
     31 H10A        -5.8330     0.0010    -0.2700 hc         1 MVJ       0.013200
     32 H11         -4.6080    -1.2480     1.4750 hc         1 MVJ       0.014200
     33 H11A        -4.6000    -2.1330    -0.0610 hc         1 MVJ       0.014200
     34 H12         -2.3480    -1.2460    -0.5580 hc         1 MVJ       0.017950
     35 H12A        -2.3560    -2.1340     0.9760 hc         1 MVJ       0.017950
     36 H14          1.2580    -1.3050     4.7770 hc         1 MVJ       0.026700
     37 H14A         2.4360    -2.1370     3.7450 hc         1 MVJ       0.026700
     38 H15          3.1510    -2.0720     6.1370 h1         1 MVJ       0.024700
     39 H15A         4.2840    -1.2190     5.0730 h1         1 MVJ       0.024700
     40 H17          4.2810     1.2020     5.0830 h1         1 MVJ       0.024700
     41 H17A         3.1450     2.0430     6.1540 h1         1 MVJ       0.024700
     42 H18          2.4310     2.1250     3.7630 hc         1 MVJ       0.026700
     43 H18A         1.2560     1.2820     4.7880 hc         1 MVJ       0.026700
     44 HN21         4.1530     0.0040     0.7500 hn         1 MVJ       0.175500
@<TRIPOS>BOND
     1     1     2 ar  
     2     1     6 ar  
     3     1    22 1   
     4     2     3 ar  
     5     2    23 1   
     6     3     4 ar  
     7     3    21 1   
     8     4     5 ar  
     9     4    13 1   
    10     5     6 ar  
    11     5    24 1   
    12     6     7 1   
    13     7     8 1   
    14     7    12 1   
    15     7    25 1   
    16     8     9 1   
    17     8    26 1   
    18     8    27 1   
    19     9    10 1   
    20     9    28 1   
    21     9    29 1   
    22    10    11 1   
    23    10    30 1   
    24    10    31 1   
    25    11    12 1   
    26    11    32 1   
    27    11    33 1   
    28    12    34 1   
    29    12    35 1   
    30    13    14 1   
    31    13    18 1   
    32    13    19 1   
    33    14    15 1   
    34    14    36 1   
    35    14    37 1   
    36    15    16 1   
    37    15    38 1   
    38    15    39 1   
    39    16    17 1   
    40    17    18 1   
    41    17    40 1   
    42    17    41 1   
    43    18    42 1   
    44    18    43 1   
    45    19    20 2   
    46    19    21 1   
    47    21    44 1   
@<TRIPOS>SUBSTRUCTURE
     1 MVJ         1 TEMP              0 ****  ****    0 ROOT
