@<TRIPOS>MOLECULE
MVL
   26    27     1     0     0
SMALL
bcc


@<TRIPOS>ATOM
      1 C1         -0.0570    0.1240    0.0350 cc        1 MVL      0.322800
      2 N10         1.3470   -0.0000   -0.0130 na        1 MVL     -0.179900
      3 C3          0.1240    0.4930    2.4950 c3        1 MVL      0.111100
      4 C4          1.4000   -0.3640    2.4290 c3        1 MVL      0.103100
      5 C5          2.2110   -0.0630    1.1400 c3        1 MVL      0.051000
      6 C6          3.3260   -1.1230    1.0280 c3        1 MVL      0.119400
      7 C7          0.5040    0.1090   -2.0830 cd        1 MVL      0.275200
      8 C8          1.7080   -0.0040   -1.3560 cc        1 MVL     -0.216600
      9 N1         -0.5790    0.1880   -1.2160 nd        1 MVL     -0.654000
     10 O3         -0.5030    0.3070    3.7470 oh        1 MVL     -0.595800
     11 O2         -1.3870   -1.1120    1.6180 oh        1 MVL     -0.616800
     12 O4          2.2670   -0.0750    3.5120 oh        1 MVL     -0.602800
     13 C2         -0.8190    0.1580    1.3260 c3        1 MVL      0.104800
     14 O6          4.2370   -0.6750    0.0380 oh        1 MVL     -0.608800
     15 H2         -1.6400    0.9280    1.2650 h1        1 MVL      0.081700
     16 H5          2.7120    0.9460    1.2580 h1        1 MVL      0.092700
     17 H8          2.7500   -0.0870   -1.6700 h4        1 MVL      0.200000
     18 H3          0.3900    1.5870    2.4670 h1        1 MVL      0.097700
     19 H4          1.1180   -1.4550    2.4660 h1        1 MVL      0.065700
     20 HA         -0.9360   -0.5590    3.7350 ho        1 MVL      0.427000
     21 HB          1.7060    0.1020    4.2820 ho        1 MVL      0.430000
     22 H6C1        2.9120   -2.1250    0.7400 h1        1 MVL      0.051700
     23 H6C2        3.8320   -1.1950    2.0290 h1        1 MVL      0.051700
     24 H6          5.0200   -1.2340    0.1080 ho        1 MVL      0.411000
     25 H7          0.3720    0.1400   -3.1640 h4        1 MVL      0.044100
     26 HC         -1.9370   -1.3590    0.8640 ho        1 MVL      0.434000
@<TRIPOS>BOND
     1    1    2 1   
     2    1    9 2   
     3    1   13 1   
     4    2    5 1   
     5    2    8 1   
     6    3    4 1   
     7    3   10 1   
     8    3   13 1   
     9    3   18 1   
    10    4    5 1   
    11    4   12 1   
    12    4   19 1   
    13    5    6 1   
    14    5   16 1   
    15    6   14 1   
    16    6   22 1   
    17    6   23 1   
    18    7    8 2   
    19    7    9 1   
    20    7   25 1   
    21    8   17 1   
    22   10   20 1   
    23   11   13 1   
    24   11   26 1   
    25   12   21 1   
    26   13   15 1   
    27   14   24 1   
@<TRIPOS>SUBSTRUCTURE
     1 MVL         1 TEMP              0 ****  ****    0 ROOT
