@<TRIPOS>MOLECULE
molecule
   26    27     1     0     0
SMALL
bcc


@<TRIPOS>ATOM
      1 C1           0.0000     0.0000     0.0000 cc         1 MVL       0.358800
      2 N10          1.3540     0.0000     0.0000 na         1 MVL      -0.173900
      3 C3           0.0510     0.4150     2.4310 c3         1 MVL       0.129100
      4 C4           1.3360    -0.4270     2.3990 c3         1 MVL       0.136100
      5 C5           2.1920     0.0000     1.2010 c3         1 MVL       0.045000
      6 C6           3.3480    -0.9840     1.0200 c3         1 MVL       0.130400
      7 C7           0.6430    -0.0040    -2.0570 cd         1 MVL       0.293200
      8 C8           1.7600    -0.0010    -1.3010 cc         1 MVL      -0.238600
      9 N1          -0.4170    -0.0030    -1.2320 nd         1 MVL      -0.682000
     10 O3          -0.6440     0.1810     3.6570 oh         1 MVL      -0.583800
     11 O2          -1.3770    -1.2970     1.4830 oh         1 MVL      -0.582800
     12 O4           2.0690    -0.2230     3.6080 oh         1 MVL      -0.598800
     13 C2          -0.8440     0.0080     1.2530 c3         1 MVL       0.123800
     14 O6           4.2000    -0.5300    -0.0320 oh         1 MVL      -0.612800
     15 H2          -1.6500     0.7240     1.1450 h1         1 MVL       0.063700
     16 H5           2.5800     0.9970     1.3710 h1         1 MVL       0.087700
     17 H8           2.7830    -0.0010    -1.6590 h4         1 MVL       0.195000
     18 H3           0.3050     1.4650     2.3470 h1         1 MVL       0.054700
     19 H4           1.0770    -1.4750     2.3000 h1         1 MVL       0.074700
     20 HA          -0.9520     1.0010     4.0060 ho         1 MVL       0.407000
     21 HB           2.0280    -1.0020     4.1360 ho         1 MVL       0.419000
     22 H6C1         2.9540    -1.9620     0.7690 h1         1 MVL       0.043700
     23 H6C2         3.9150    -1.0490     1.9410 h1         1 MVL       0.043700
     24 H6           5.0630    -0.8940     0.0830 ho         1 MVL       0.410000
     25 H7           0.6070     0.0010    -3.1390 h4         1 MVL       0.041100
     26 HC          -2.2920    -1.3070     1.2560 ho         1 MVL       0.415000
@<TRIPOS>BOND
     1     1     2 1
     2     1     9 2
     3     1    13 1
     4     2     5 1
     5     2     8 1
     6     3     4 1
     7     3    10 1
     8     3    13 1
     9     4     5 1
    10     4    12 1
    11     5     6 1
    12     6    14 1
    13     7     8 2
    14     7     9 1
    15    11    13 1
    16    13    15 1
    17     5    16 1
    18     8    17 1
    19     3    18 1
    20     4    19 1
    21    10    20 1
    22    12    21 1
    23     6    22 1
    24     6    23 1
    25    14    24 1
    26     7    25 1
    27    11    26 1
@<TRIPOS>SUBSTRUCTURE
     1 MVL         1 TEMP              0 ****  ****    0 ROOT
