@<TRIPOS>MOLECULE
molecule
   21    22     1     0     0
SMALL
bcc


@<TRIPOS>ATOM
      1 C1           0.0000     0.0000     0.0000 ca         1 MVN      -0.174000
      2 C2           1.3780     0.0000     0.0000 ca         1 MVN      -0.073000
      3 C3           1.4220     0.0000     2.4000 ca         1 MVN      -0.066000
      4 C4           0.0240     0.0000     2.4180 ca         1 MVN      -0.118800
      5 C5          -0.6930    -0.0010     1.2060 ca         1 MVN       0.091600
      6 C6           2.0870     0.0000     1.1940 ca         1 MVN      -0.009600
      7 C7          -2.0720     0.0000     3.6370 cc         1 MVN      -0.237200
      8 C8          -0.7170    -0.0000     3.6810 cd         1 MVN       0.007600
      9 C9          -2.7430    -0.0000     2.3950 c          1 MVN       0.695700
     10 C10          0.0110    -0.0000     5.0000 c3         1 MVN      -0.059900
     11 N11         -2.0720    -0.0010     1.2310 ns         1 MVN      -0.428100
     12 O12         -3.9620     0.0010     2.3790 o          1 MVN      -0.641500
     13 Cl1          3.8230    -0.0000     1.1660 cl         1 MVN      -0.103400
     14 H1          -0.5430    -0.0000    -0.9380 ha         1 MVN       0.144000
     15 H2           1.9140    -0.0000    -0.9410 ha         1 MVN       0.149000
     16 H3           1.9790     0.0000     3.3290 ha         1 MVN       0.152000
     17 H11         -2.5800    -0.0010     0.3690 hn         1 MVN       0.340500
     18 H7          -2.6420     0.0010     4.5580 ha         1 MVN       0.167000
     19 H101         0.6330     0.8850     5.0690 hc         1 MVN       0.054033
     20 H102         0.6330    -0.8840     5.0690 hc         1 MVN       0.054033
     21 H103        -0.7080    -0.0000     5.8100 hc         1 MVN       0.054033
@<TRIPOS>BOND
     1     1     2 ar
     2     1     5 ar
     3     2     6 ar
     4     3     4 ar
     5     3     6 ar
     6     4     5 ar
     7     4     8 1
     8     5    11 1
     9     6    13 1
    10     7     8 2
    11     7     9 1
    12     8    10 1
    13     9    11 1
    14     9    12 2
    15     1    14 1
    16     2    15 1
    17     3    16 1
    18    11    17 1
    19     7    18 1
    20    10    19 1
    21    10    20 1
    22    10    21 1
@<TRIPOS>SUBSTRUCTURE
     1 MVN         1 TEMP              0 ****  ****    0 ROOT
