@<TRIPOS>MOLECULE
MVN
   21    22     1     0     0
SMALL
bcc


@<TRIPOS>ATOM
      1 C1           0.0000     0.0000     0.0000 ca         1 MVN      -0.143000
      2 C2           1.3780     0.0000     0.0000 ca         1 MVN      -0.048000
      3 C3           1.4220     0.0000     2.4000 ca         1 MVN      -0.045000
      4 C4           0.0240     0.0000     2.4180 ca         1 MVN      -0.109800
      5 C5          -0.6930    -0.0010     1.2060 ca         1 MVN      -0.068400
      6 C6           2.0870     0.0000     1.1940 ca         1 MVN      -0.070600
      7 C7          -2.0720     0.0000     3.6370 cc         1 MVN      -0.217200
      8 C8          -0.7170    -0.0000     3.6810 cd         1 MVN       0.001600
      9 C9          -2.7430    -0.0000     2.3950 c          1 MVN       0.593700
     10 C10          0.0110    -0.0000     5.0000 c3         1 MVN       0.051100
     11 N11         -2.0720    -0.0010     1.2310 ns         1 MVN       0.043900
     12 O12         -3.9620     0.0010     2.3790 o          1 MVN      -0.687500
     13 Cl1          3.8230    -0.0000     1.1660 cl         1 MVN      -0.020400
     14 H1          -0.5430    -0.0000    -0.9380 ha         1 MVN       0.116000
     15 H2           1.9140    -0.0000    -0.9410 ha         1 MVN       0.115000
     16 H3           1.9790     0.0000     3.3290 ha         1 MVN       0.123000
     17 H11         -2.5800    -0.0010     0.3690 hn         1 MVN       0.176500
     18 H7          -2.6420     0.0010     4.5580 ha         1 MVN       0.139000
     19 H101         0.6330     0.8850     5.0690 hc         1 MVN       0.016367
     20 H102         0.6330    -0.8840     5.0690 hc         1 MVN       0.016367
     21 H103        -0.7080    -0.0000     5.8100 hc         1 MVN       0.016367
@<TRIPOS>BOND
     1     1     2 ar  
     2     1     5 ar  
     3     1    14 1   
     4     2     6 ar  
     5     2    15 1   
     6     3     4 ar  
     7     3     6 ar  
     8     3    16 1   
     9     4     5 ar  
    10     4     8 1   
    11     5    11 1   
    12     6    13 1   
    13     7     8 2   
    14     7     9 1   
    15     7    18 1   
    16     8    10 1   
    17     9    11 1   
    18     9    12 2   
    19    10    19 1   
    20    10    20 1   
    21    10    21 1   
    22    11    17 1   
@<TRIPOS>SUBSTRUCTURE
     1 MVN         1 TEMP              0 ****  ****    0 ROOT
