@<TRIPOS>MOLECULE
molecule
   27    29     1     0     0
SMALL
bcc


@<TRIPOS>ATOM
      1 O            0.0000     0.0000     0.0000 o          1 MW5      -0.597500
      2 C5           1.2210     0.0000     0.0000 c          1 MW5       0.620500
      3 N2           1.9070     0.0000     1.1600 n          1 MW5       0.058300
      4 N3           1.5000     0.0020     2.5000 n2         1 MW5      -0.455800
      5 C1           2.5570     0.0020     3.2480 cc         1 MW5       0.450400
      6 C4           1.9350    -0.0070    -1.2060 cc         1 MW5      -0.289400
      7 C3           3.3140    -0.0080    -1.1600 cd         1 MW5       0.343000
      8 Cl           4.2320    -0.0160    -2.6330 cl         1 MW5      -0.050400
      9 N4           3.9400    -0.0020     0.0130 nd         1 MW5      -0.416600
     10 C2           3.2660    -0.0010     1.1510 cc         1 MW5       0.155400
     11 N1           3.6710     0.0000     2.4550 na         1 MW5      -0.371900
     12 C6           1.2090    -0.0150    -2.5260 c3         1 MW5       0.040100
     13 C7           0.8590    -1.4330    -2.8990 ca         1 MW5      -0.085300
     14 C12         -0.3470    -1.9740    -2.4970 ca         1 MW5      -0.118000
     15 C11         -0.6690    -3.2750    -2.8390 ca         1 MW5      -0.131500
     16 C10          0.2160    -4.0330    -3.5830 ca         1 MW5      -0.130000
     17 C9           1.4220    -3.4900    -3.9860 ca         1 MW5      -0.131500
     18 C8           1.7410    -2.1890    -3.6480 ca         1 MW5      -0.118000
     19 H1           2.5590     0.5470     4.1840 h5         1 MW5       0.094100
     20 HA           4.6190    -0.0000     2.7750 hn         1 MW5       0.340700
     21 H61C         1.8470     0.4130    -3.2910 hc         1 MW5       0.067200
     22 H62C         0.3020     0.5720    -2.4440 hc         1 MW5       0.067200
     23 H12         -1.0400    -1.3800    -1.9140 ha         1 MW5       0.139000
     24 H8           2.6860    -1.7640    -3.9640 ha         1 MW5       0.139000
     25 H11         -1.6140    -3.6990    -2.5230 ha         1 MW5       0.127500
     26 H10         -0.0360    -5.0520    -3.8490 ha         1 MW5       0.126000
     27 H9           2.1140    -4.0830    -4.5710 ha         1 MW5       0.127500
@<TRIPOS>BOND
     1     1     2 2
     2     2     3 1
     3     2     6 1
     4     3     4 1
     5     3    10 1
     6     4     5 2
     7     5    11 1
     8     6     7 2
     9     6    12 1
    10     7     8 1
    11     7     9 1
    12     9    10 2
    13    10    11 1
    14    12    13 1
    15    13    14 ar
    16    13    18 ar
    17    14    15 ar
    18    15    16 ar
    19    16    17 ar
    20    17    18 ar
    21     5    19 1
    22    11    20 1
    23    12    21 1
    24    12    22 1
    25    14    23 1
    26    18    24 1
    27    15    25 1
    28    16    26 1
    29    17    27 1
@<TRIPOS>SUBSTRUCTURE
     1 MW5         1 TEMP              0 ****  ****    0 ROOT
