@<TRIPOS>MOLECULE
MW5
   27    29     1     0     0
SMALL
bcc


@<TRIPOS>ATOM
      1 O            0.0000     0.0000     0.0000 o          1 MW5      -0.647500
      2 C5           1.2210     0.0000     0.0000 c          1 MW5       0.527500
      3 N2           1.9070     0.0000     1.1600 n          1 MW5       0.480300
      4 N3           1.5000     0.0020     2.5000 n2         1 MW5      -0.563800
      5 C1           2.5570     0.0020     3.2480 cc         1 MW5       0.335400
      6 C4           1.9350    -0.0070    -1.2060 cc         1 MW5      -0.310400
      7 C3           3.3140    -0.0080    -1.1600 cd         1 MW5       0.224000
      8 Cl           4.2320    -0.0160    -2.6330 cl         1 MW5       0.021600
      9 N4           3.9400    -0.0020     0.0130 nd         1 MW5      -0.303600
     10 C2           3.2660    -0.0010     1.1510 cc         1 MW5      -0.206600
     11 N1           3.6710     0.0000     2.4550 na         1 MW5       0.122100
     12 C6           1.2090    -0.0150    -2.5260 c3         1 MW5       0.117100
     13 C7           0.8590    -1.4330    -2.8990 ca         1 MW5      -0.090300
     14 C12         -0.3470    -1.9740    -2.4970 ca         1 MW5      -0.097000
     15 C11         -0.6690    -3.2750    -2.8390 ca         1 MW5      -0.103500
     16 C10          0.2160    -4.0330    -3.5830 ca         1 MW5      -0.106000
     17 C9           1.4220    -3.4900    -3.9860 ca         1 MW5      -0.103500
     18 C8           1.7410    -2.1890    -3.6480 ca         1 MW5      -0.097000
     19 H1           2.5590     0.5470     4.1840 h5         1 MW5       0.039100
     20 HA           4.6190    -0.0000     2.7750 hn         1 MW5       0.165700
     21 H61C         1.8470     0.4130    -3.2910 hc         1 MW5       0.031700
     22 H62C         0.3020     0.5720    -2.4440 hc         1 MW5       0.031700
     23 H12         -1.0400    -1.3800    -1.9140 ha         1 MW5       0.116500
     24 H8           2.6860    -1.7640    -3.9640 ha         1 MW5       0.116500
     25 H11         -1.6140    -3.6990    -2.5230 ha         1 MW5       0.101000
     26 H10         -0.0360    -5.0520    -3.8490 ha         1 MW5       0.099000
     27 H9           2.1140    -4.0830    -4.5710 ha         1 MW5       0.101000
@<TRIPOS>BOND
     1     1     2 2   
     2     2     3 1   
     3     2     6 1   
     4     3     4 1   
     5     3    10 1   
     6     4     5 2   
     7     5    11 1   
     8     5    19 1   
     9     6     7 2   
    10     6    12 1   
    11     7     8 1   
    12     7     9 1   
    13     9    10 2   
    14    10    11 1   
    15    11    20 1   
    16    12    13 1   
    17    12    21 1   
    18    12    22 1   
    19    13    14 ar  
    20    13    18 ar  
    21    14    15 ar  
    22    14    23 1   
    23    15    16 ar  
    24    15    25 1   
    25    16    17 ar  
    26    16    26 1   
    27    17    18 ar  
    28    17    27 1   
    29    18    24 1   
@<TRIPOS>SUBSTRUCTURE
     1 MW5         1 TEMP              0 ****  ****    0 ROOT
