@<TRIPOS>MOLECULE
MWB
   46    49     1     0     0
SMALL
bcc


@<TRIPOS>ATOM
      1 C1           0.0000     0.0000     0.0000 ca         1 MWB      -0.023900
      2 C2           1.3830     0.0010     2.3990 ca         1 MWB       0.006600
      3 C3           1.3890     0.0000     0.0000 ca         1 MWB      -0.093000
      4 C4          -0.6950     0.0000     1.2020 ca         1 MWB      -0.093000
      5 C5          -0.0060     0.0010     2.3980 ca         1 MWB      -0.139000
      6 C6           2.0780     0.0000     1.1960 ca         1 MWB      -0.139000
      7 C7           1.8380    -0.1110     6.0110 ca         1 MWB      -0.139000
      8 C8           0.0780    -2.2360     5.7300 ca         1 MWB      -0.093000
      9 C9           1.5150    -0.5870     4.7470 ca         1 MWB       0.006600
     10 C10          1.2820    -0.6960     7.1310 ca         1 MWB      -0.093000
     11 C11          0.4000    -1.7590     6.9940 ca         1 MWB      -0.023900
     12 C12          0.6290    -1.6480     4.6090 ca         1 MWB      -0.139000
     13 N1           2.0820     0.0030     3.6110 nu         1 MWB      -0.232000
     14 C13         -0.3950    -1.5990     9.2590 c2         1 MWB       0.545600
     15 N2          -0.8350    -2.1390    10.4360 nu         1 MWB      -0.550200
     16 N3          -0.2080    -0.3190     9.2970 n2         1 MWB      -0.727400
     17 C14         -1.9310     0.6160    -1.2960 c2         1 MWB       0.545600
     18 N4          -2.4500     1.2820    -0.3170 n2         1 MWB      -0.727400
     19 N5          -2.7060     0.5740    -2.4220 nu         1 MWB      -0.550200
     20 N6          -0.7000     0.0050    -1.2140 nu         1 MWB      -0.271100
     21 N7          -0.1640    -2.3530     8.1310 nu         1 MWB      -0.271100
     22 C15         -0.9720    -1.0530    11.4220 c3         1 MWB       0.135800
     23 C16         -0.5390     0.1990    10.6310 c3         1 MWB       0.175300
     24 C17         -3.7640     1.8120    -0.7090 c3         1 MWB       0.175300
     25 C18         -3.9450     1.3250    -2.1600 c3         1 MWB       0.135800
     26 H1           1.9310    -0.0010    -0.9380 ha         1 MWB       0.123750
     27 H2          -1.7790     0.0000     1.2010 ha         1 MWB       0.123750
     28 H3          -0.5480     0.0020     3.3360 ha         1 MWB       0.116500
     29 H4           3.1620    -0.0000     1.1970 ha         1 MWB       0.116500
     30 H5           2.5270     0.7180     6.1190 ha         1 MWB       0.116500
     31 H6          -0.6120    -3.0650     5.6230 ha         1 MWB       0.123750
     32 H7           1.5330    -0.3250     8.1170 ha         1 MWB       0.123750
     33 H8           0.3770    -2.0200     3.6230 ha         1 MWB       0.116500
     34 H9           2.9870     0.4270     3.6670 hn         1 MWB       0.282800
     35 H10         -1.0340    -3.1060    10.5990 hn         1 MWB       0.306800
     36 H15         -2.4730     0.1090    -3.2770 hn         1 MWB       0.306800
     37 H17         -0.2830    -0.3910    -2.0330 hn         1 MWB       0.274300
     38 H18         -0.4350    -3.3160     8.1100 hn         1 MWB       0.274300
     39 H19         -0.2220    -1.2210    12.1850 h1         1 MWB       0.019200
     40 H20          0.3320     0.6520    11.0880 h1         1 MWB       0.024200
     41 H21         -4.5030     1.2970    -0.1080 h1         1 MWB       0.024200
     42 H22         -3.6700     2.8910    -0.7470 h1         1 MWB       0.024200
     43 H23         -4.8080     0.6750    -2.2380 h1         1 MWB       0.019200
     44 H24         -4.0300     2.1670    -2.8360 h1         1 MWB       0.019200
     45 H11         -2.0290    -0.9460    11.6320 h1         1 MWB       0.019200
     46 H12         -1.3560     0.9080    10.5700 h1         1 MWB       0.024200
@<TRIPOS>BOND
     1     1     3 ar  
     2     1     4 ar  
     3     1    20 1   
     4     2     5 ar  
     5     2     6 ar  
     6     2    13 1   
     7     3     6 ar  
     8     3    26 1   
     9     4     5 ar  
    10     4    27 1   
    11     5    28 1   
    12     6    29 1   
    13     7     9 ar  
    14     7    10 ar  
    15     7    30 1   
    16     8    11 ar  
    17     8    12 ar  
    18     8    31 1   
    19     9    12 ar  
    20     9    13 1   
    21    10    11 ar  
    22    10    32 1   
    23    11    21 1   
    24    12    33 1   
    25    13    34 1   
    26    14    15 1   
    27    14    16 2   
    28    14    21 1   
    29    15    22 1   
    30    15    35 1   
    31    16    23 1   
    32    17    18 2   
    33    17    19 1   
    34    17    20 1   
    35    18    24 1   
    36    19    25 1   
    37    19    36 1   
    38    20    37 1   
    39    21    38 1   
    40    22    23 1   
    41    22    39 1   
    42    22    45 1   
    43    23    40 1   
    44    23    46 1   
    45    24    25 1   
    46    24    41 1   
    47    24    42 1   
    48    25    43 1   
    49    25    44 1   
@<TRIPOS>SUBSTRUCTURE
     1 MWB         1 TEMP              0 ****  ****    0 ROOT
