@<TRIPOS>MOLECULE
molecule
   51    55     1     0     0
SMALL
bcc


@<TRIPOS>ATOM
      1 C1           0.0000     0.0000     0.0000 ca         1 MWL       0.481700
      2 N2           1.3230     0.0000     0.0000 nb         1 MWL      -0.768500
      3 C6          -0.6750     0.0050     1.2100 ca         1 MWL      -0.414600
      4 C5           0.0640     0.0050     2.3820 ca         1 MWL       0.481700
      5 N4           1.3850    -0.0010     2.3120 nb         1 MWL      -0.768500
      6 C3           2.0000     0.0000     1.1390 ca         1 MWL       0.865900
      7 N7           3.3840    -0.0060     1.1030 nh         1 MWL      -0.675300
      8 C8           3.8740    -0.0040    -0.2830 c3         1 MWL       0.173800
      9 C9           3.4640     1.3030    -0.9650 c3         1 MWL       0.126300
     10 C12          3.9360     1.1290     1.8540 c3         1 MWL       0.173800
     11 C11          3.5260     2.4370     1.1730 c3         1 MWL       0.126300
     12 N10          4.0160     2.4390    -0.2120 nh         1 MWL      -0.698300
     13 C13          3.7240     3.6430    -0.8430 ca         1 MWL       0.548200
     14 C14          4.1050     3.8470    -2.1670 ca         1 MWL      -0.212300
     15 N18          3.0760     4.5950    -0.1850 nb         1 MWL      -0.364000
     16 N17          2.7780     5.7220    -0.7220 nb         1 MWL      -0.284000
     17 C16          3.0960     6.0150    -1.9730 cp         1 MWL       0.396800
     18 C20          2.7280     7.3320    -2.5470 cp         1 MWL      -0.151500
     19 C21          3.5710     7.9560    -3.4650 ca         1 MWL      -0.100000
     20 C22          3.2200     9.1790    -4.0000 ca         1 MWL      -0.136000
     21 C23          2.0350     9.7860    -3.6260 ca         1 MWL      -0.116000
     22 C24          1.1940     9.1720    -2.7140 ca         1 MWL      -0.136000
     23 C25          1.5340     7.9490    -2.1730 ca         1 MWL      -0.100000
     24 C15          3.7900     5.0710    -2.7560 cq         1 MWL      -0.097300
     25 C19          4.1620     5.3650    -4.1610 cq         1 MWL      -0.015000
     26 C30          3.2170     5.8570    -5.0670 ca         1 MWL      -0.236300
     27 C26          5.4690     5.1630    -4.6150 ca         1 MWL      -0.236300
     28 C27          5.7720     5.4490    -5.9310 ca         1 MWL       0.417700
     29 N28          4.8490     5.9070    -6.7540 nb         1 MWL      -0.686000
     30 C29          3.6070     6.1170    -6.3650 ca         1 MWL       0.417700
     31 H1          -0.5480    -0.0000    -0.9340 h4         1 MWL       0.031100
     32 H2          -1.7580     0.0070     1.2390 ha         1 MWL       0.147000
     33 H3          -0.4340     0.0070     3.3450 h4         1 MWL       0.031100
     34 H4           4.9540    -0.0870    -0.2830 h1         1 MWL       0.078200
     35 H5           3.4420    -0.8410    -0.8190 h1         1 MWL       0.078200
     36 H6           3.8520     1.3190    -1.9760 h1         1 MWL       0.065700
     37 H7           2.3830     1.3760    -0.9850 h1         1 MWL       0.065700
     38 H8           5.0160     1.0560     1.8740 h1         1 MWL       0.078200
     39 H9           3.5490     1.1130     2.8660 h1         1 MWL       0.078200
     40 H10          2.4460     2.5190     1.1730 h1         1 MWL       0.065700
     41 H11          3.9570     3.2730     1.7090 h1         1 MWL       0.065700
     42 H12          4.6380     3.0820    -2.7190 ha         1 MWL       0.158000
     43 H13          4.5000     7.4820    -3.7580 ha         1 MWL       0.145000
     44 H14          3.8750     9.6650    -4.7140 ha         1 MWL       0.134500
     45 H15          1.7640    10.7460    -4.0480 ha         1 MWL       0.131000
     46 H16          0.2670     9.6530    -2.4250 ha         1 MWL       0.134500
     47 H17          0.8750     7.4690    -1.4590 ha         1 MWL       0.145000
     48 H18          2.1950     6.0320    -4.7550 ha         1 MWL       0.149000
     49 H19          6.2320     4.7870    -3.9440 ha         1 MWL       0.149000
     50 H20          6.7810     5.2940    -6.2930 h4         1 MWL       0.027600
     51 H21          2.8810     6.4970    -7.0750 h4         1 MWL       0.027600
@<TRIPOS>BOND
     1    20    21 ar
     2    20    19 ar
     3    21    22 ar
     4    19    18 ar
     5    22    23 ar
     6    18    23 ar
     7    18    17 1
     8    16    17 ar
     9    16    15 ar
    10    17    24 2
    11    15    13 ar
    12    26    30 ar
    13    26    25 2
    14    30    29 ar
    15    24    25 1
    16    24    14 1
    17    13    14 ar
    18    13    12 1
    19    25    27 1
    20    11    10 1
    21    11    12 1
    22    10     7 1
    23    12     9 1
    24    29    28 ar
    25    27    28 ar
    26     5     4 ar
    27     5     6 ar
    28     7     6 1
    29     7     8 1
    30     9     8 1
    31     4     3 ar
    32     6     2 ar
    33     3     1 ar
    34     2     1 ar
    35     1    31 1
    36     3    32 1
    37     4    33 1
    38     8    34 1
    39     8    35 1
    40     9    36 1
    41     9    37 1
    42    10    38 1
    43    10    39 1
    44    11    40 1
    45    11    41 1
    46    14    42 1
    47    19    43 1
    48    20    44 1
    49    21    45 1
    50    22    46 1
    51    23    47 1
    52    26    48 1
    53    27    49 1
    54    28    50 1
    55    30    51 1
@<TRIPOS>SUBSTRUCTURE
     1 MWL         1 TEMP              0 ****  ****    0 ROOT
