@<TRIPOS>MOLECULE
MWP
   19    20     1     0     0
SMALL
bcc


@<TRIPOS>ATOM
      1 O11          0.0000     0.0000     0.0000 o          1 MWP      -0.573300
      2 S9           1.4220     0.0000     0.0000 sy         1 MWP       0.907200
      3 O10          2.2210    -0.9370    -0.7100 o          1 MWP      -0.573300
      4 C8           1.9640     0.0000     1.6970 ce         1 MWP      -0.120100
      5 C7           2.5150     1.1910     1.8540 cf         1 MWP       0.025800
      6 C2           2.5470     2.1240     0.7200 ca         1 MWP      -0.080800
      7 C3           1.9620     1.6270    -0.4550 ca         1 MWP      -0.093500
      8 C4           1.9010     2.3550    -1.6080 ca         1 MWP       0.019000
      9 C5           2.4330     3.6430    -1.6410 ca         1 MWP       0.033600
     10 N12          2.3780     4.3990    -2.8120 nv         1 MWP      -0.558200
     11 C6           3.0190     4.1640    -0.4920 ca         1 MWP      -0.087000
     12 C1           3.0790     3.4280     0.6690 ca         1 MWP      -0.058000
     13 H1           1.3240    -0.4070     2.4700 h4         1 MWP       0.166000
     14 H2           2.9400     1.4760     2.8090 ha         1 MWP       0.102000
     15 H3           1.5210     1.9020    -2.5150 ha         1 MWP       0.115000
     16 H4           3.1300     4.3560    -3.4710 hn         1 MWP       0.278800
     17 H5           1.5830     4.9780    -2.9980 hn         1 MWP       0.278800
     18 H6           3.4350     5.1640    -0.5120 ha         1 MWP       0.111000
     19 H7           3.5400     3.8540     1.5520 ha         1 MWP       0.105000
@<TRIPOS>BOND
     1     1     2 2   
     2     2     3 2   
     3     2     4 1   
     4     2     7 1   
     5     4     5 2   
     6     4    13 1   
     7     5     6 1   
     8     5    14 1   
     9     6     7 ar  
    10     6    12 ar  
    11     7     8 ar  
    12     8     9 ar  
    13     8    15 1   
    14     9    10 1   
    15     9    11 ar  
    16    10    16 1   
    17    10    17 1   
    18    11    12 ar  
    19    11    18 1   
    20    12    19 1   
@<TRIPOS>SUBSTRUCTURE
     1 MWP         1 TEMP              0 ****  ****    0 ROOT
