@<TRIPOS>MOLECULE
MX1
   45    46     1     0     0
SMALL
bcc


@<TRIPOS>ATOM
      1 O4           0.0000     0.0000     0.0000 o          1 MX1      -0.887300
      2 C7           1.3460     0.0000     0.0000 c          1 MX1       0.901300
      3 O3           1.9530     0.0000     1.0510 o          1 MX1      -0.887300
      4 C4           2.0900     0.0000    -1.2880 ce         1 MX1       0.344600
      5 N1           1.4530    -0.1210    -2.4110 n2         1 MX1      -0.436900
      6 C5           3.5640     0.1450    -1.3000 ce         1 MX1      -0.216800
      7 C8           4.2420     0.4730    -0.2050 c2         1 MX1      -0.239000
      8 C6           4.2610    -0.0990    -2.6260 c3         1 MX1       0.245600
      9 O2           3.4140     0.4570    -3.6440 os         1 MX1      -0.404600
     10 C3           2.1230    -0.1420    -3.7060 c3         1 MX1       0.303300
     11 C2           1.2700     0.6220    -4.7210 c3         1 MX1       0.146200
     12 C1           1.9070     0.5310    -6.0830 c          1 MX1       0.949600
     13 O32          2.0070    -0.6580    -6.6980 o          1 MX1      -0.890300
     14 O31          2.3290     1.5270    -6.6210 o          1 MX1      -0.890300
     15 O5           1.1760     1.9920    -4.3290 os         1 MX1      -0.381600
     16 C9           0.2820     2.7670    -5.1320 c3         1 MX1       0.242700
     17 N2          -0.0720     0.0350    -4.7690 ns         1 MX1      -0.170900
     18 C10         -0.2300    -1.2580    -5.1170 c          1 MX1       0.597100
     19 O6           0.7380    -1.9350    -5.3900 o          1 MX1      -0.623100
     20 C11         -1.6100    -1.8610    -5.1670 c3         1 MX1      -0.199400
     21 C12         -2.2480    -1.7700    -3.8050 c          1 MX1       0.951600
     22 O8          -3.4870    -2.2480    -3.6100 o          1 MX1      -0.865300
     23 O7          -1.6440    -1.2660    -2.8880 o          1 MX1      -0.865300
     24 C13         -1.5120    -3.3070    -5.5810 ca         1 MX1       0.051700
     25 C14         -2.1470    -3.7410    -6.7280 ca         1 MX1      -0.060000
     26 C18         -0.7800    -4.1950    -4.8130 ca         1 MX1      -0.060000
     27 C17         -0.6870    -5.5210    -5.1900 ca         1 MX1      -0.159500
     28 C16         -1.3290    -5.9610    -6.3380 ca         1 MX1       0.045100
     29 O9          -1.2390    -7.2650    -6.7100 oh         1 MX1      -0.521100
     30 C15         -2.0580    -5.0670    -7.1090 ca         1 MX1      -0.159500
     31 H81          5.3200     0.5710    -0.2450 ha         1 MX1       0.098000
     32 H82          3.7170     0.6400     0.7280 ha         1 MX1       0.098000
     33 H61          5.2240     0.3970    -2.6340 h1         1 MX1      -0.012300
     34 H62          4.3840    -1.1630    -2.7880 h1         1 MX1      -0.012300
     35 H3           2.2290    -1.1700    -4.0300 h2         1 MX1       0.081700
     36 H91          0.0360     2.2160    -6.0320 h1         1 MX1      -0.024633
     37 H92          0.7570     3.7030    -5.4000 h1         1 MX1      -0.024633
     38 H93         -0.6230     2.9680    -4.5730 h1         1 MX1      -0.024633
     39 HN2         -0.8730     0.6030    -4.5750 hn         1 MX1       0.174500
     40 H11         -2.2150    -1.3200    -5.8860 hc         1 MX1       0.020700
     41 H14         -2.7160    -3.0430    -7.3300 ha         1 MX1       0.116000
     42 H18         -0.2790    -3.8500    -3.9170 ha         1 MX1       0.116000
     43 H17         -0.1140    -6.2160    -4.5890 ha         1 MX1       0.081000
     44 HO9         -1.9460    -7.7520    -6.3210 ho         1 MX1       0.368000
     45 H15         -2.5580    -5.4080    -8.0070 ha         1 MX1       0.081000
@<TRIPOS>BOND
     1     1     2 1   
     2     2     3 1   
     3     2     4 1   
     4     4     5 2   
     5     4     6 1   
     6     5    10 1   
     7     6     7 2   
     8     6     8 1   
     9     7    31 1   
    10     7    32 1   
    11     8     9 1   
    12     8    33 1   
    13     8    34 1   
    14     9    10 1   
    15    10    11 1   
    16    10    35 1   
    17    11    12 1   
    18    11    15 1   
    19    11    17 1   
    20    12    13 1   
    21    12    14 1   
    22    15    16 1   
    23    16    36 1   
    24    16    37 1   
    25    16    38 1   
    26    17    18 1   
    27    17    39 1   
    28    18    19 2   
    29    18    20 1   
    30    20    21 1   
    31    20    24 1   
    32    20    40 1   
    33    21    22 1   
    34    21    23 1   
    35    24    25 ar  
    36    24    26 ar  
    37    25    30 ar  
    38    25    41 1   
    39    26    27 ar  
    40    26    42 1   
    41    27    28 ar  
    42    27    43 1   
    43    28    29 1   
    44    28    30 ar  
    45    29    44 1   
    46    30    45 1   
@<TRIPOS>SUBSTRUCTURE
     1 MX1         1 TEMP              0 ****  ****    0 ROOT
