@<TRIPOS>MOLECULE
molecule
   40    40     1     0     0
SMALL
bcc


@<TRIPOS>ATOM
      1 C1           0.0000     0.0000     0.0000 ca         1 MX3      -0.118300
      2 C2           1.3820     0.0000     0.0000 ca         1 MX3      -0.111500
      3 N20         -6.0120     5.3090    -0.4250 nz         1 MX3      -0.530600
      4 C3           2.0730     0.0000     1.1970 ca         1 MX3      -0.132000
      5 C4           1.3830    -0.0090     2.3940 ca         1 MX3      -0.121000
      6 C5           0.0010    -0.0130     2.3940 ca         1 MX3      -0.132000
      7 C6          -0.6910    -0.0100     1.1970 ca         1 MX3      -0.111500
      8 C7          -0.7550     0.0050    -1.3050 c3         1 MX3       0.156300
      9 C9          -2.3870     3.4380    -1.7530 c3         1 MX3      -0.137400
     10 C10         -3.7230     3.9100    -1.1760 c3         1 MX3      -0.162400
     11 C11         -3.9790     5.3320    -1.6030 c          1 MX3       0.656100
     12 C15         -2.1300     2.0160    -1.3270 c          1 MX3       0.666100
     13 C12         -5.3550     7.3440    -1.6250 c3         1 MX3      -0.031000
     14 C13         -6.1080     7.3480    -2.9290 c          1 MX3       0.865600
     15 C14         -0.0300     2.0870    -2.5620 c3         1 MX3       0.090300
     16 N2          -5.1050     5.9610    -1.2090 n          1 MX3      -0.405200
     17 N3          -1.0040     1.3870    -1.7200 n          1 MX3      -0.480800
     18 O4          -2.9360     1.4370    -0.6290 o          1 MX3      -0.636100
     19 O6          -3.1720     5.9110    -2.3000 o          1 MX3      -0.497100
     20 O7          -6.4490     8.5130    -3.5040 o          1 MX3      -0.797800
     21 O8          -6.4060     6.3030    -3.4590 o          1 MX3      -0.797800
     22 H2           1.9240     0.0070    -0.9380 ha         1 MX3       0.136500
     23 H201        -6.3030     4.4660    -0.8800 hn         1 MX3       0.450800
     24 H202        -6.8070     5.8980    -0.2740 hn         1 MX3       0.450800
     25 H3           3.1570     0.0020     1.1960 ha         1 MX3       0.130500
     26 H4           1.9250    -0.0110     3.3320 ha         1 MX3       0.131000
     27 H5          -0.5410    -0.0210     3.3320 ha         1 MX3       0.130500
     28 H6          -1.7740    -0.0120     1.1970 ha         1 MX3       0.136500
     29 H7C1        -0.1680    -0.5000    -2.0630 h1         1 MX3       0.067700
     30 H7C2        -1.6990    -0.5100    -1.1780 h1         1 MX3       0.067700
     31 H9C1        -2.4220     3.4900    -2.8350 hc         1 MX3       0.088200
     32 H9C2        -1.5900     4.0750    -1.3870 hc         1 MX3       0.088200
     33 H101        -3.6870     3.8580    -0.0950 hc         1 MX3       0.069200
     34 H102        -4.5190     3.2740    -1.5430 hc         1 MX3       0.069200
     35 H121        -4.4100     7.8590    -1.7520 h1         1 MX3       0.081200
     36 H122        -5.9420     7.8480    -0.8670 h1         1 MX3       0.081200
     37 H141         0.3920     2.9180    -2.0110 h1         1 MX3       0.045033
     38 H142        -0.5240     2.4570    -3.4520 h1         1 MX3       0.045033
     39 H143         0.7600     1.4030    -2.8450 h1         1 MX3       0.045033
     40 H203        -5.5920     5.0830     0.4550 hn         1 MX3       0.450800
@<TRIPOS>BOND
     1     1     2 ar
     2     1     7 ar
     3     1     8 1
     4     2     4 ar
     5     2    22 1
     6     3    16 1
     7     3    23 1
     8     3    24 1
     9     4     5 ar
    10     4    25 1
    11     5     6 ar
    12     5    26 1
    13     6     7 ar
    14     6    27 1
    15     7    28 1
    16     8    17 1
    17     8    29 1
    18     8    30 1
    19     9    10 1
    20     9    12 1
    21     9    31 1
    22     9    32 1
    23    10    11 1
    24    10    33 1
    25    10    34 1
    26    11    16 1
    27    11    19 2
    28    12    17 1
    29    12    18 2
    30    13    14 1
    31    13    16 1
    32    13    35 1
    33    13    36 1
    34    14    20 1
    35    14    21 1
    36    15    17 1
    37    15    37 1
    38    15    38 1
    39    15    39 1
    40    40     3 1
@<TRIPOS>SUBSTRUCTURE
     1 MX3         1 TEMP              0 ****  ****    0 ROOT
