@<TRIPOS>MOLECULE
molecule
   36    36     1     0     0
SMALL
bcc


@<TRIPOS>ATOM
      1 C2           0.0000     0.0000     0.0000 c3         1 MX4      -0.168400
      2 C3           1.5300     0.0000     0.0000 c3         1 MX4      -0.106400
      3 C4           2.0320     0.0000     1.4210 c          1 MX4       0.641100
      4 O5           1.2470     0.0000     2.3400 o          1 MX4      -0.575000
      5 O6           3.3520     0.0000     1.6670 os         1 MX4      -0.423900
      6 C7          -0.5030    -0.0000    -1.4200 c          1 MX4       0.657100
      7 O8           0.2850     0.0000    -2.3420 o          1 MX4      -0.491100
      8 N9          -1.8280    -0.0000    -1.6670 n          1 MX4      -0.403200
      9 C10         -2.3170    -0.0010    -3.0480 c3         1 MX4      -0.032000
     10 C12          6.0340    -1.1960     3.0410 ca         1 MX4      -0.101000
     11 C13          7.4170    -1.1970     3.0360 ca         1 MX4      -0.130500
     12 C14          8.1070     0.0010     3.0360 ca         1 MX4      -0.112000
     13 C15          7.4160     1.1980     3.0340 ca         1 MX4      -0.130500
     14 C16          6.0330     1.1980     3.0350 ca         1 MX4      -0.101000
     15 C17          5.3430     0.0010     3.0350 ca         1 MX4      -0.105300
     16 C18         -2.4840    -1.4220    -3.5220 c          1 MX4       0.867600
     17 C9           3.8360     0.0000     3.0350 c3         1 MX4       0.205700
     18 O19         -2.9230    -1.6670    -4.7650 o          1 MX4      -0.796300
     19 N16         -2.7160    -0.0010    -0.6290 nz         1 MX4      -0.531600
     20 O20         -2.2220    -2.3400    -2.7810 o          1 MX4      -0.796300
     21 H2C1        -0.3610    -0.8840     0.5110 hc         1 MX4       0.068700
     22 H2C2        -0.3610     0.8850     0.5110 hc         1 MX4       0.068700
     23 H3C1         1.8910     0.8850    -0.5110 hc         1 MX4       0.101200
     24 H3C2         1.8910    -0.8850    -0.5110 hc         1 MX4       0.101200
     25 H101        -1.6040     0.5100    -3.6830 h1         1 MX4       0.081200
     26 H102        -3.2710     0.5090    -3.0930 h1         1 MX4       0.081200
     27 H15          7.9580     2.1360     3.0340 ha         1 MX4       0.134500
     28 H16          5.4920     2.1360     3.0330 ha         1 MX4       0.133000
     29 H9C1         3.4750    -0.8840     3.5450 h1         1 MX4       0.054200
     30 H9C2         3.4740     0.8850     3.5450 h1         1 MX4       0.054200
     31 H161        -2.6120     0.8430    -0.1000 hn         1 MX4       0.451133
     32 H162        -2.5380    -0.7890    -0.0380 hn         1 MX4       0.451133
     33 H12          5.4920    -2.1340     3.0410 ha         1 MX4       0.133000
     34 H13          7.9580    -2.1350     3.0390 ha         1 MX4       0.134500
     35 H163        -3.6490    -0.0470    -0.9870 hn         1 MX4       0.451133
     36 H14          9.1910     0.0010     3.0330 ha         1 MX4       0.133000
@<TRIPOS>BOND
     1     1     2 1
     2     1     6 1
     3     1    21 1
     4     1    22 1
     5     2     3 1
     6     2    23 1
     7     2    24 1
     8     3     4 2
     9     3     5 1
    10     5    17 1
    11     6     7 2
    12     6     8 1
    13     8     9 1
    14     8    19 1
    15     9    16 1
    16     9    25 1
    17     9    26 1
    18    10    11 ar
    19    10    15 ar
    20    10    33 1
    21    11    12 ar
    22    11    34 1
    23    12    13 ar
    24    12    36 1
    25    13    14 ar
    26    13    27 1
    27    14    15 ar
    28    14    28 1
    29    15    17 1
    30    16    18 1
    31    16    20 1
    32    17    29 1
    33    17    30 1
    34    19    31 1
    35    19    32 1
    36    35    19 1
@<TRIPOS>SUBSTRUCTURE
     1 MX4         1 TEMP              0 ****  ****    0 ROOT
