@<TRIPOS>MOLECULE
molecule
   41    42     1     0     0
SMALL
bcc


@<TRIPOS>ATOM
      1 C1           0.0000     0.0000     0.0000 ca         1 MX5      -0.112300
      2 C2           1.5060     0.0000     0.0000 c3         1 MX5      -0.031100
      3 N20         -2.4530    -2.2390     8.1450 nz         1 MX5      -0.531600
      4 C4          -2.7740     0.0190    -0.0640 ca         1 MX5      -0.114000
      5 C5          -2.0510     0.4360    -1.1670 ca         1 MX5      -0.144000
      6 C6          -0.6700     0.4270    -1.1350 ca         1 MX5      -0.110000
      7 C7          -0.7250    -0.4210     1.1040 ca         1 MX5       0.061600
      8 C9          -0.0840    -1.6090     4.6230 c3         1 MX5      -0.138400
      9 C10         -1.0990    -1.7450     5.7610 c3         1 MX5      -0.164400
     10 C11         -0.4260    -2.3600     6.9620 c          1 MX5       0.657100
     11 C12         -0.4780    -3.1740     9.2570 c3         1 MX5      -0.032000
     12 C13          0.0970    -2.0840    10.1250 c          1 MX5       0.866600
     13 C14          1.3660    -1.1350     2.2130 c3         1 MX5       0.093000
     14 N2          -1.1310    -2.5760     8.0900 n          1 MX5      -0.404200
     15 N3          -0.0730    -0.8470     2.2700 n          1 MX5      -0.365000
     16 O4          -1.9120    -0.6320     3.4930 o          1 MX5      -0.619100
     17 O6           0.7480    -2.6600     6.9130 o          1 MX5      -0.496100
     18 O7           0.7460    -2.3980    11.2570 o          1 MX5      -0.797300
     19 C19          2.0420     0.0000     1.4310 c3         1 MX5      -0.097400
     20 O8          -0.0270    -0.9260     9.8020 o          1 MX5      -0.797300
     21 C24         -2.1140    -0.4060     1.0710 ca         1 MX5      -0.155000
     22 H2C1         1.8620    -0.8850    -0.5130 hc         1 MX5       0.056200
     23 H2C2         1.8620     0.8850    -0.5130 hc         1 MX5       0.056200
     24 H201        -2.9650    -2.7870     7.4820 hn         1 MX5       0.451467
     25 H202        -2.5590    -1.2680     7.9280 hn         1 MX5       0.451467
     26 H4          -3.8570     0.0270    -0.0900 ha         1 MX5       0.132000
     27 H5          -2.5690     0.7700    -2.0580 ha         1 MX5       0.130000
     28 H6          -0.1090     0.7550    -2.0010 ha         1 MX5       0.133000
     29 H9C1         0.7340    -0.9760     4.9430 hc         1 MX5       0.089700
     30 H9C2         0.2980    -2.5880     4.3610 hc         1 MX5       0.089700
     31 H101        -1.4810    -0.7660     6.0230 hc         1 MX5       0.070200
     32 H102        -1.9170    -2.3780     5.4410 hc         1 MX5       0.070200
     33 H121        -1.2040    -3.7420     9.8260 h1         1 MX5       0.081700
     34 H122         0.3180    -3.8310     8.9290 h1         1 MX5       0.081700
     35 H141         1.7710    -1.1780     3.2170 h1         1 MX5       0.058700
     36 H142         1.5310    -2.0770     1.7040 h1         1 MX5       0.058700
     37 H191         3.1130    -0.1580     1.4170 hc         1 MX5       0.060200
     38 H192         1.8150     0.9490     1.9030 hc         1 MX5       0.060200
     39 H24         -2.6790    -0.7340     1.9350 ha         1 MX5       0.183000
     40 C15         -0.7560    -0.9940     3.4220 c          1 MX5       0.665100
     41 H203        -2.8020    -2.4100     9.0670 hn         1 MX5       0.451467
@<TRIPOS>BOND
     1     1     2 1
     2     1     6 ar
     3     1     7 ar
     4     2    19 1
     5     2    22 1
     6     2    23 1
     7     3    14 1
     8     3    24 1
     9     3    25 1
    10     4     5 ar
    11     4    21 ar
    12     4    26 1
    13     5     6 ar
    14     5    27 1
    15     6    28 1
    16     7    15 1
    17     7    21 ar
    18     8     9 1
    19     8    40 1
    20     8    29 1
    21     8    30 1
    22     9    10 1
    23     9    31 1
    24     9    32 1
    25    10    14 1
    26    10    17 2
    27    40    15 1
    28    40    16 2
    29    11    12 1
    30    11    14 1
    31    11    33 1
    32    11    34 1
    33    12    18 1
    34    12    20 1
    35    13    15 1
    36    13    19 1
    37    13    35 1
    38    13    36 1
    39    19    37 1
    40    19    38 1
    41    21    39 1
    42    41     3 1
@<TRIPOS>SUBSTRUCTURE
     1 MX5         1 TEMP              0 ****  ****    0 ROOT
