@<TRIPOS>MOLECULE
molecule
  119   118     1     0     0
SMALL
bcc


@<TRIPOS>ATOM
      1 C2I          0.0000     0.0000     0.0000 c3         1 MX7      -0.092100
      2 C2H          1.5300     0.0000     0.0000 c3         1 MX7      -0.084400
      3 C2G          2.0390     0.0000     1.4430 c3         1 MX7      -0.081400
      4 C2F          3.5690     0.0000     1.4430 c3         1 MX7      -0.083400
      5 C2E          4.0790    -0.0000     2.8860 c3         1 MX7      -0.080400
      6 C2D          5.6090    -0.0000     2.8870 c3         1 MX7      -0.091400
      7 C2C          6.1180     0.0010     4.3300 c3         1 MX7      -0.094400
      8 C2B          7.6480    -0.0000     4.3300 c3         1 MX7       0.062800
      9 C2A          8.1490     0.0010     5.7510 c2         1 MX7      -0.273200
     10 C29          9.0210    -0.8980     6.1390 c2         1 MX7      -0.241200
     11 C28          9.6480    -1.8240     5.1290 c3         1 MX7       0.062800
     12 C27         11.1720    -1.7470     5.2450 c3         1 MX7      -0.095400
     13 C26         11.8090    -2.6870     4.2200 c3         1 MX7      -0.091400
     14 C25         13.3330    -2.6110     4.3370 c3         1 MX7      -0.078400
     15 C24         13.9700    -3.5510     3.3110 c3         1 MX7      -0.085400
     16 C23         15.4940    -3.4750     3.4280 c3         1 MX7      -0.071400
     17 C22         16.1320    -4.4150     2.4030 c3         1 MX7      -0.128400
     18 C21         17.6320    -4.3400     2.5180 c          1 MX7       0.639100
     19 O22         18.1400    -3.6090     3.3360 o          1 MX7      -0.584000
     20 O21         18.4050    -5.0840     1.7110 os         1 MX7      -0.389900
     21 C2          19.8420    -4.9600     1.8780 c3         1 MX7       0.133100
     22 C1          20.3270    -5.9880     2.9040 c3         1 MX7       0.206400
     23 O11         20.1170    -7.3060     2.3940 os         1 MX7      -0.564200
     24 P           20.5110    -8.6350     3.2120 p5         1 MX7       1.193900
     25 O13         20.2570    -9.9300     2.2880 o          1 MX7      -0.862833
     26 O12         21.9390    -8.5740     3.5930 o          1 MX7      -0.862833
     27 O14         19.6050    -8.7380     4.5390 o          1 MX7      -0.862833
     28 C3          20.5350    -5.2140     0.5370 c3         1 MX7       0.164400
     29 O31         20.3120    -6.5890     0.1300 os         1 MX7      -0.320900
     30 C31         20.8570    -6.9770    -1.0350 c          1 MX7       0.641100
     31 O32         21.5000    -6.1920    -1.6910 o          1 MX7      -0.626000
     32 C32         20.6680    -8.3900    -1.5220 c3         1 MX7      -0.128400
     33 C33         21.3850    -8.5670    -2.8620 c3         1 MX7      -0.071400
     34 C34         21.1930   -10.0010    -3.3580 c3         1 MX7      -0.084400
     35 C35         21.9110   -10.1790    -4.6980 c3         1 MX7      -0.079400
     36 C36         21.7180   -11.6140    -5.1930 c3         1 MX7      -0.091400
     37 C37         22.4360   -11.7910    -6.5330 c3         1 MX7      -0.096400
     38 C38         22.2440   -13.2250    -7.0290 c3         1 MX7       0.064800
     39 C39         22.9500   -13.3990    -8.3480 c2         1 MX7      -0.237200
     40 C3A         23.7970   -14.3860    -8.5130 c2         1 MX7      -0.268200
     41 C3B         23.9390   -15.4430    -7.4470 c3         1 MX7       0.065800
     42 C3C         23.7480   -16.8250    -8.0720 c3         1 MX7      -0.096400
     43 C3D         23.8920   -17.8980    -6.9900 c3         1 MX7      -0.091400
     44 C3E         23.7000   -19.2810    -7.6160 c3         1 MX7      -0.080400
     45 C3F         23.8440   -20.3540    -6.5330 c3         1 MX7      -0.083400
     46 C3G         23.6530   -21.7370    -7.1590 c3         1 MX7      -0.081400
     47 C3H         23.7960   -22.8100    -6.0770 c3         1 MX7      -0.084400
     48 C3I         23.6050   -24.1930    -6.7020 c3         1 MX7      -0.092100
     49 H1          -0.3610     0.8850     0.5110 hc         1 MX7       0.030700
     50 H2          -0.3610    -0.8850     0.5110 hc         1 MX7       0.030700
     51 H3          -0.3610     0.0000    -1.0210 hc         1 MX7       0.030700
     52 H4           1.8910     0.8850    -0.5110 hc         1 MX7       0.040200
     53 H5           1.8910    -0.8850    -0.5110 hc         1 MX7       0.040200
     54 H6           1.6780     0.8850     1.9540 hc         1 MX7       0.039700
     55 H7           1.6780    -0.8850     1.9540 hc         1 MX7       0.039700
     56 H8           3.9300     0.8850     0.9320 hc         1 MX7       0.040700
     57 H9           3.9300    -0.8850     0.9320 hc         1 MX7       0.040700
     58 H10          3.7170     0.8850     3.3960 hc         1 MX7       0.040700
     59 H11          3.7170    -0.8840     3.3970 hc         1 MX7       0.040700
     60 H12          5.9700    -0.8850     2.3780 hc         1 MX7       0.038200
     61 H13          5.9700     0.8840     2.3760 hc         1 MX7       0.038200
     62 H14          5.7570     0.8860     4.8390 hc         1 MX7       0.049700
     63 H15          5.7560    -0.8830     4.8420 hc         1 MX7       0.049700
     64 H16          8.0100     0.8830     3.8190 hc         1 MX7       0.035700
     65 H17          8.0090    -0.8860     3.8210 hc         1 MX7       0.035700
     66 H18          8.7090     0.4880     4.9620 ha         1 MX7       0.063000
     67 H19          8.5180    -1.8050     5.8250 ha         1 MX7       0.060000
     68 H20          9.3220    -2.8390     5.3180 hc         1 MX7       0.037200
     69 H21          9.3470    -1.5280     4.1320 hc         1 MX7       0.037200
     70 H22         11.4740    -2.0430     6.2430 hc         1 MX7       0.052700
     71 H23         11.4990    -0.7320     5.0560 hc         1 MX7       0.052700
     72 H24         11.5080    -2.3910     3.2230 hc         1 MX7       0.036200
     73 H25         11.4830    -3.7030     4.4100 hc         1 MX7       0.036200
     74 H26         13.6590    -1.5960     4.1470 hc         1 MX7       0.043700
     75 H27         13.6340    -2.9070     5.3340 hc         1 MX7       0.043700
     76 H28         13.6450    -4.5670     3.5010 hc         1 MX7       0.037700
     77 H29         13.6690    -3.2560     2.3140 hc         1 MX7       0.037700
     78 H30         15.8200    -2.4590     3.2380 hc         1 MX7       0.056200
     79 H31         15.7950    -3.7700     4.4260 hc         1 MX7       0.056200
     80 H32         15.8060    -5.4300     2.5930 hc         1 MX7       0.069200
     81 H33         15.8310    -4.1190     1.4050 hc         1 MX7       0.069200
     82 H34         20.0820    -3.9630     2.2250 h1         1 MX7       0.050700
     83 H35         19.7740    -5.8650     3.8270 h1         1 MX7       0.029700
     84 H36         21.3830    -5.8380     3.0930 h1         1 MX7       0.029700
     85 H39         20.1280    -4.5450    -0.2110 h1         1 MX7       0.034200
     86 H40         21.5980    -5.0360     0.6410 h1         1 MX7       0.034200
     87 H41         21.0810    -9.0800    -0.7970 hc         1 MX7       0.097700
     88 H42         19.6110    -8.5890    -1.6490 hc         1 MX7       0.097700
     89 H43         20.9730    -7.8760    -3.5870 hc         1 MX7       0.043700
     90 H44         22.4430    -8.3680    -2.7350 hc         1 MX7       0.043700
     91 H45         20.1360   -10.2010    -3.4850 hc         1 MX7       0.047700
     92 H46         21.6060   -10.6920    -2.6330 hc         1 MX7       0.047700
     93 H47         22.9680    -9.9790    -4.5700 hc         1 MX7       0.037700
     94 H48         21.4980    -9.4880    -5.4230 hc         1 MX7       0.037700
     95 H49         20.6610   -11.8130    -5.3200 hc         1 MX7       0.040200
     96 H50         22.1310   -12.3040    -4.4680 hc         1 MX7       0.040200
     97 H51         22.0230   -11.1000    -7.2580 hc         1 MX7       0.051200
     98 H52         23.4930   -11.5920    -6.4050 hc         1 MX7       0.051200
     99 H53         22.6570   -13.9160    -6.3040 hc         1 MX7       0.042700
    100 H54         21.1870   -13.4250    -7.1560 hc         1 MX7       0.042700
    101 H55         22.0480   -13.9540    -8.1210 ha         1 MX7       0.067000
    102 H56         24.4440   -14.2320    -7.6570 ha         1 MX7       0.071000
    103 H57         23.1900   -15.2860    -6.6810 hc         1 MX7       0.043700
    104 H58         24.9260   -15.3800    -7.0050 hc         1 MX7       0.043700
    105 H59         24.4970   -16.9820    -8.8390 hc         1 MX7       0.049200
    106 H60         22.7610   -16.8880    -8.5140 hc         1 MX7       0.049200
    107 H61         23.1430   -17.7420    -6.2230 hc         1 MX7       0.041700
    108 H62         24.8800   -17.8360    -6.5490 hc         1 MX7       0.041700
    109 H63         22.7130   -19.3440    -8.0580 hc         1 MX7       0.039200
    110 H64         24.4500   -19.4390    -8.3820 hc         1 MX7       0.039200
    111 H65         23.0940   -20.1970    -5.7670 hc         1 MX7       0.043200
    112 H66         24.8310   -20.2910    -6.0910 hc         1 MX7       0.043200
    113 H67         24.4020   -21.8930    -7.9250 hc         1 MX7       0.038700
    114 H68         22.6660   -21.8000    -7.6010 hc         1 MX7       0.038700
    115 H69         24.7830   -22.7470    -5.6350 hc         1 MX7       0.041200
    116 H70         23.0470   -22.6540    -5.3110 hc         1 MX7       0.041200
    117 H71         23.7070   -24.9530    -5.9370 hc         1 MX7       0.030033
    118 H72         22.6180   -24.2560    -7.1440 hc         1 MX7       0.030033
    119 H73         24.3550   -24.3500    -7.4680 hc         1 MX7       0.030033
@<TRIPOS>BOND
     1    26    24 1
     2    31    30 2
     3    30    32 1
     4    30    29 1
     5    22    23 1
     6    22    21 1
     7    24    27 1
     8    24    23 1
     9    24    25 1
    10    44    45 1
    11    44    43 1
    12    32    33 1
    13    45    46 1
    14    43    42 1
    15    28    29 1
    16    28    21 1
    17    21    20 1
    18    42    41 1
    19    46    47 1
    20    47    48 1
    21    33    34 1
    22    41    40 1
    23    34    35 1
    24    20    18 1
    25    19    18 2
    26    38    39 1
    27    38    37 1
    28    18    17 1
    29    40    39 2
    30    35    36 1
    31    37    36 1
    32    17    16 1
    33    16    15 1
    34    14    15 1
    35    14    13 1
    36    13    12 1
    37    12    11 1
    38    11    10 1
    39    10     9 2
    40     9     8 1
    41     8     7 1
    42     7     6 1
    43     6     5 1
    44     5     4 1
    45     4     3 1
    46     3     2 1
    47     1     2 1
    48     1    49 1
    49     1    50 1
    50     1    51 1
    51     2    52 1
    52     2    53 1
    53     3    54 1
    54     3    55 1
    55     4    56 1
    56     4    57 1
    57     5    58 1
    58     5    59 1
    59     6    60 1
    60     6    61 1
    61     7    62 1
    62     7    63 1
    63     8    64 1
    64     8    65 1
    65     9    66 1
    66    10    67 1
    67    11    68 1
    68    11    69 1
    69    12    70 1
    70    12    71 1
    71    13    72 1
    72    13    73 1
    73    14    74 1
    74    14    75 1
    75    15    76 1
    76    15    77 1
    77    16    78 1
    78    16    79 1
    79    17    80 1
    80    17    81 1
    81    21    82 1
    82    22    83 1
    83    22    84 1
    84    28    85 1
    85    28    86 1
    86    32    87 1
    87    32    88 1
    88    33    89 1
    89    33    90 1
    90    34    91 1
    91    34    92 1
    92    35    93 1
    93    35    94 1
    94    36    95 1
    95    36    96 1
    96    37    97 1
    97    37    98 1
    98    38    99 1
    99    38   100 1
   100    39   101 1
   101    40   102 1
   102    41   103 1
   103    41   104 1
   104    42   105 1
   105    42   106 1
   106    43   107 1
   107    43   108 1
   108    44   109 1
   109    44   110 1
   110    45   111 1
   111    45   112 1
   112    46   113 1
   113    46   114 1
   114    47   115 1
   115    47   116 1
   116    48   117 1
   117    48   118 1
   118    48   119 1
@<TRIPOS>SUBSTRUCTURE
     1 MX7         1 TEMP              0 ****  ****    0 ROOT
