@<TRIPOS>MOLECULE
MX7
  119   118     1     0     0
SMALL
bcc


@<TRIPOS>ATOM
      1 C2I         2.3370    1.5470   -0.5280 c3        1 MX7     -0.091100
      2 C2H         3.6220    0.7680   -0.6390 c3        1 MX7     -0.081400
      3 C2G         4.0770    0.2500    0.7090 c3        1 MX7     -0.078400
      4 C2F         5.3690   -0.5310    0.5920 c3        1 MX7     -0.080400
      5 C2E         5.8230   -1.0480    1.9400 c3        1 MX7     -0.077400
      6 C2D         7.1140   -1.8290    1.8220 c3        1 MX7     -0.080400
      7 C2C         7.5680   -2.3480    3.1690 c3        1 MX7     -0.075400
      8 C2B         8.8600   -3.1290    3.0470 c3        1 MX7     -0.047200
      9 C2A         9.3280   -3.6500    4.3530 c2        1 MX7     -0.190200
     10 C29        10.4570   -4.3500    4.5100 c2        1 MX7     -0.159200
     11 C28        11.3780   -4.6880    3.4000 c3        1 MX7     -0.053200
     12 C27        12.5560   -5.5230    3.8590 c3        1 MX7     -0.077400
     13 C26        13.4790   -5.8470    2.7040 c3        1 MX7     -0.080400
     14 C25        14.6540   -6.6870    3.1570 c3        1 MX7     -0.077400
     15 C24        15.5790   -7.0060    2.0030 c3        1 MX7     -0.080400
     16 C23        16.7470   -7.8560    2.4550 c3        1 MX7     -0.074400
     17 C22        17.6770   -8.1540    1.3000 c3        1 MX7     -0.140400
     18 C21        18.7610   -9.1150    1.6980 c         1 MX7      0.651100
     19 O22        18.7400   -9.9140    2.6430 o         1 MX7     -0.594000
     20 O21        19.8450   -9.0060    0.8970 os        1 MX7     -0.403900
     21 C2         20.8330  -10.0610    0.9350 c3        1 MX7      0.088100
     22 C1         20.3360  -11.2780    0.1160 c3        1 MX7      0.192400
     23 O11        19.8800  -10.9240   -1.1260 os        1 MX7     -0.565200
     24 P          20.8360  -11.4290   -2.4700 p5        1 MX7      1.340900
     25 O13        19.8370  -11.5470   -3.5860 o         1 MX7     -0.921500
     26 O12        21.7660  -10.2420   -2.5810 o         1 MX7     -0.921500
     27 O14        21.4510  -12.7110   -1.9830 o         1 MX7     -0.921500
     28 C3         22.1080   -9.4910    0.3140 c3        1 MX7      0.066400
     29 O31        22.3130   -8.1150    0.6420 os        1 MX7     -0.434900
     30 C31        21.9070   -7.1560   -0.2490 c         1 MX7      0.660100
     31 O32        22.2300   -6.0210    0.1420 o         1 MX7     -0.608000
     32 C32        21.1660   -7.5070   -1.4920 c3        1 MX7     -0.214400
     33 C33        20.7220   -6.2800   -2.2540 c3        1 MX7     -0.052400
     34 C34        19.6730   -6.6080   -3.2950 c3        1 MX7     -0.066400
     35 C35        20.2120   -7.4500   -4.4320 c3        1 MX7     -0.099400
     36 C36        19.1530   -7.6470   -5.4960 c3        1 MX7     -0.064400
     37 C37        19.6170   -8.5480   -6.6240 c3        1 MX7     -0.059400
     38 C38        19.1740   -9.9840   -6.4260 c3        1 MX7     -0.086200
     39 C39        19.5470  -10.8370   -7.5790 c2        1 MX7     -0.167200
     40 C3A        19.6480  -12.1700   -7.5540 c2        1 MX7     -0.166200
     41 C3B        19.4210  -13.0250   -6.3670 c3        1 MX7     -0.092200
     42 C3C        20.5610  -14.0020   -6.1520 c3        1 MX7     -0.045400
     43 C3D        20.5660  -14.4990   -4.7230 c3        1 MX7     -0.107400
     44 C3E        21.7310  -15.4280   -4.4580 c3        1 MX7     -0.049400
     45 C3F        21.8360  -15.7350   -2.9800 c3        1 MX7     -0.120400
     46 C3G        23.0590  -16.5690   -2.6710 c3        1 MX7     -0.061400
     47 C3H        23.1760  -16.8320   -1.1840 c3        1 MX7     -0.086400
     48 C3I        24.4120  -17.6280   -0.8500 c3        1 MX7     -0.085100
     49 H1          2.0200    1.9190   -1.5320 hc        1 MX7      0.030367
     50 H2          1.5210    0.9050   -0.1160 hc        1 MX7      0.030367
     51 H3          2.4660    2.4250    0.1490 hc        1 MX7      0.030367
     52 H4          3.4810   -0.0950   -1.3420 hc        1 MX7      0.039700
     53 H5          4.4220    1.4220   -1.0770 hc        1 MX7      0.039700
     54 H6          3.2800   -0.4050    1.1480 hc        1 MX7      0.037700
     55 H7          4.2210    1.1120    1.4130 hc        1 MX7      0.037700
     56 H8          6.1660    0.1250    0.1530 hc        1 MX7      0.041200
     57 H9          5.2250   -1.3920   -0.1130 hc        1 MX7      0.041200
     58 H10         5.0260   -1.7040    2.3790 hc        1 MX7      0.036700
     59 H11         5.9670   -0.1870    2.6440 hc        1 MX7      0.036700
     60 H12         7.9120   -1.1730    1.3830 hc        1 MX7      0.042200
     61 H13         6.9700   -2.6900    1.1170 hc        1 MX7      0.042200
     62 H14         7.7140   -1.4870    3.8740 hc        1 MX7      0.037700
     63 H15         6.7710   -3.0040    3.6080 hc        1 MX7      0.037700
     64 H16         8.7150   -3.9860    2.3340 hc        1 MX7      0.049200
     65 H17         9.6560   -2.4720    2.6000 hc        1 MX7      0.049200
     66 H18         8.6840   -3.4300    5.2200 ha        1 MX7      0.114000
     67 H19        10.7520   -4.7130    5.5080 ha        1 MX7      0.121000
     68 H20        11.7530   -3.7380    2.9250 hc        1 MX7      0.049200
     69 H21        10.8130   -5.2430    2.6010 hc        1 MX7      0.049200
     70 H22        13.1240   -4.9680    4.6510 hc        1 MX7      0.039200
     71 H23        12.1840   -6.4740    4.3220 hc        1 MX7      0.039200
     72 H24        13.8530   -4.8960    2.2420 hc        1 MX7      0.039700
     73 H25        12.9090   -6.3980    1.9090 hc        1 MX7      0.039700
     74 H26        14.2810   -7.6420    3.6140 hc        1 MX7      0.037200
     75 H27        15.2220   -6.1400    3.9550 hc        1 MX7      0.037200
     76 H28        15.9600   -6.0520    1.5510 hc        1 MX7      0.040700
     77 H29        15.0090   -7.5470    1.2010 hc        1 MX7      0.040700
     78 H30        17.3130   -7.3250    3.2650 hc        1 MX7      0.048700
     79 H31        16.3760   -8.8210    2.8920 hc        1 MX7      0.048700
     80 H32        18.1440   -7.2110    0.9110 hc        1 MX7      0.081700
     81 H33        17.1170   -8.6300    0.4500 hc        1 MX7      0.081700
     82 H34        20.9980  -10.3530    2.0060 h1        1 MX7      0.031700
     83 H35        21.1830  -12.0200    0.0470 h1        1 MX7      0.021700
     84 H36        19.4860  -11.7270    0.7110 h1        1 MX7      0.021700
     85 H39        22.0970   -9.6870   -0.8130 h1        1 MX7      0.115700
     86 H40        22.9910  -10.0040    0.7820 h1        1 MX7      0.115700
     87 H41        20.2860   -8.1560   -1.2100 hc        1 MX7      0.151700
     88 H42        21.8050   -8.1750   -2.1530 hc        1 MX7      0.151700
     89 H43        21.6110   -5.8040   -2.7460 hc        1 MX7      0.022200
     90 H44        20.3030   -5.5230   -1.5370 hc        1 MX7      0.022200
     91 H45        18.8230   -7.1550   -2.8070 hc        1 MX7      0.019700
     92 H46        19.2600   -5.6460   -3.7040 hc        1 MX7      0.019700
     93 H47        21.1090   -6.9480   -4.8810 hc        1 MX7      0.076200
     94 H48        20.5520   -8.4510   -4.0350 hc        1 MX7      0.076200
     95 H49        18.8640   -6.6470   -5.9180 hc        1 MX7      0.017700
     96 H50        18.2330   -8.0810   -5.0200 hc        1 MX7      0.017700
     97 H51        20.7350   -8.5150   -6.7030 hc        1 MX7      0.013700
     98 H52        19.2070   -8.1590   -7.5950 hc        1 MX7      0.013700
     99 H53        19.6100  -10.3900   -5.4570 hc        1 MX7      0.100700
    100 H54        18.0570  -10.0170   -6.3020 hc        1 MX7      0.100700
    101 H55        19.7510  -10.2960   -8.5200 ha        1 MX7      0.074000
    102 H56        19.9380  -12.7120   -8.4720 ha        1 MX7      0.072000
    103 H57        18.4610  -13.5920   -6.5030 hc        1 MX7      0.091200
    104 H58        19.3120  -12.3940   -5.4270 hc        1 MX7      0.091200
    105 H59        20.4780  -14.8620   -6.8690 hc        1 MX7      0.004200
    106 H60        21.5370  -13.4890   -6.3640 hc        1 MX7      0.004200
    107 H61        19.6040  -15.0320   -4.5060 hc        1 MX7      0.086200
    108 H62        20.6160  -13.6070   -4.0130 hc        1 MX7      0.086200
    109 H63        22.6810  -14.9410   -4.8030 hc        1 MX7      0.001200
    110 H64        21.6170  -16.3780   -5.0460 hc        1 MX7      0.001200
    111 H65        21.8710  -14.7520   -2.4110 hc        1 MX7      0.091700
    112 H66        20.9170  -16.2800   -2.6430 hc        1 MX7      0.091700
    113 H67        23.9770  -16.0310   -3.0260 hc        1 MX7      0.013200
    114 H68        23.0150  -17.5460   -3.2230 hc        1 MX7      0.013200
    115 H69        23.1960  -15.8490   -0.6420 hc        1 MX7      0.049200
    116 H70        22.2660  -17.3850   -0.8310 hc        1 MX7      0.049200
    117 H71        24.4740  -17.8130    0.2490 hc        1 MX7      0.014700
    118 H72        24.4010  -18.6160   -1.3730 hc        1 MX7      0.014700
    119 H73        25.3300  -17.0770   -1.1670 hc        1 MX7      0.014700
@<TRIPOS>BOND
     1    1    2 1   
     2    1   49 1   
     3    1   50 1   
     4    1   51 1   
     5    2    3 1   
     6    2   52 1   
     7    2   53 1   
     8    3    4 1   
     9    3   54 1   
    10    3   55 1   
    11    4    5 1   
    12    4   56 1   
    13    4   57 1   
    14    5    6 1   
    15    5   58 1   
    16    5   59 1   
    17    6    7 1   
    18    6   60 1   
    19    6   61 1   
    20    7    8 1   
    21    7   62 1   
    22    7   63 1   
    23    8    9 1   
    24    8   64 1   
    25    8   65 1   
    26    9   10 2   
    27    9   66 1   
    28   10   11 1   
    29   10   67 1   
    30   11   12 1   
    31   11   68 1   
    32   11   69 1   
    33   12   13 1   
    34   12   70 1   
    35   12   71 1   
    36   13   14 1   
    37   13   72 1   
    38   13   73 1   
    39   14   15 1   
    40   14   74 1   
    41   14   75 1   
    42   15   16 1   
    43   15   76 1   
    44   15   77 1   
    45   16   17 1   
    46   16   78 1   
    47   16   79 1   
    48   17   18 1   
    49   17   80 1   
    50   17   81 1   
    51   18   19 2   
    52   18   20 1   
    53   20   21 1   
    54   21   22 1   
    55   21   28 1   
    56   21   82 1   
    57   22   23 1   
    58   22   83 1   
    59   22   84 1   
    60   23   24 1   
    61   24   25 1   
    62   24   26 1   
    63   24   27 1   
    64   28   29 1   
    65   28   85 1   
    66   28   86 1   
    67   29   30 1   
    68   30   31 2   
    69   30   32 1   
    70   32   33 1   
    71   32   87 1   
    72   32   88 1   
    73   33   34 1   
    74   33   89 1   
    75   33   90 1   
    76   34   35 1   
    77   34   91 1   
    78   34   92 1   
    79   35   36 1   
    80   35   93 1   
    81   35   94 1   
    82   36   37 1   
    83   36   95 1   
    84   36   96 1   
    85   37   38 1   
    86   37   97 1   
    87   37   98 1   
    88   38   39 1   
    89   38   99 1   
    90   38  100 1   
    91   39   40 2   
    92   39  101 1   
    93   40   41 1   
    94   40  102 1   
    95   41   42 1   
    96   41  103 1   
    97   41  104 1   
    98   42   43 1   
    99   42  105 1   
   100   42  106 1   
   101   43   44 1   
   102   43  107 1   
   103   43  108 1   
   104   44   45 1   
   105   44  109 1   
   106   44  110 1   
   107   45   46 1   
   108   45  111 1   
   109   45  112 1   
   110   46   47 1   
   111   46  113 1   
   112   46  114 1   
   113   47   48 1   
   114   47  115 1   
   115   47  116 1   
   116   48  117 1   
   117   48  118 1   
   118   48  119 1   
@<TRIPOS>SUBSTRUCTURE
     1 MX7         1 TEMP              0 ****  ****    0 ROOT
