@<TRIPOS>MOLECULE
molecule
   43    45     1     0     0
SMALL
bcc


@<TRIPOS>ATOM
      1 N1           0.0000     0.0000     0.0000 nb         1 MXA      -0.729000
      2 C2           1.3200     0.0000     0.0000 ca         1 MXA       0.957900
      3 N2           1.9820     0.0010    -1.2130 nv         1 MXA      -1.059500
      4 N3           2.0400     0.0000     1.1160 nb         1 MXA      -0.786000
      5 C4           1.4620    -0.0020     2.3090 ca         1 MXA       0.757200
      6 N4           2.2170    -0.0020     3.4610 nv         1 MXA      -1.083500
      7 C4A          0.0470    -0.0020     2.3680 ca         1 MXA      -0.357600
      8 C5          -0.6470     0.0010     3.5840 ca         1 MXA       0.012700
      9 C5M          0.0890     0.0060     4.8980 c3         1 MXA      -0.052800
     10 C6          -2.0160    -0.0040     3.5430 ca         1 MXA      -0.232600
     11 C7          -2.6720    -0.0030     2.3180 ca         1 MXA       0.486200
     12 N8          -2.0140    -0.0020     1.1810 nb         1 MXA      -0.680000
     13 C8A         -0.6810    -0.0010     1.1540 ca         1 MXA       0.720300
     14 C9          -2.8090    -0.0050     4.8240 c3         1 MXA       0.023200
     15 C1'         -2.9510    -1.4200     5.3260 ca         1 MXA      -0.074300
     16 C2'         -3.9710    -2.2260     4.8450 ca         1 MXA       0.090100
     17 O2'         -4.8430    -1.7410     3.9190 os         1 MXA      -0.302900
     18 C21         -5.7630    -2.7940     3.6280 c3         1 MXA       0.105700
     19 C3'         -4.1030    -3.5270     5.3060 ca         1 MXA      -0.179000
     20 C4'         -3.2190    -4.0190     6.2450 ca         1 MXA      -0.187000
     21 C5'         -2.1980    -3.2110     6.7270 ca         1 MXA       0.089100
     22 O5'         -1.3270    -3.6950     7.6510 os         1 MXA      -0.299900
     23 C51         -1.7180    -5.0430     7.9210 c3         1 MXA       0.106700
     24 C6'         -2.0700    -1.9090     6.2690 ca         1 MXA      -0.127000
     25 HN21         2.2200    -0.8650    -1.6540 hn         1 MXA       0.445300
     26 HN22         2.2220     0.8690    -1.6510 hn         1 MXA       0.445300
     27 HN41         2.5000    -0.8700     3.8730 hn         1 MXA       0.444300
     28 HN42         2.5390     0.8630     3.8490 hn         1 MXA       0.444300
     29 H5M1        -0.6110     0.1880     5.7040 hc         1 MXA       0.051700
     30 H5M2         0.8400     0.7870     4.8890 hc         1 MXA       0.051700
     31 H5M3         0.5690    -0.9540     5.0470 hc         1 MXA       0.051700
     32 H7          -3.7550    -0.0070     2.3000 h4         1 MXA       0.039100
     33 H91         -3.7910     0.4140     4.6410 hc         1 MXA       0.063700
     34 H92         -2.2940     0.5920     5.5670 hc         1 MXA       0.063700
     35 H211        -5.2230    -3.6490     3.2390 h1         1 MXA       0.044367
     36 H212        -6.4800    -2.4530     2.8910 h1         1 MXA       0.044367
     37 H213        -6.2850    -3.0780     4.5340 h1         1 MXA       0.044367
     38 H3'         -4.9000    -4.1570     4.9300 ha         1 MXA       0.145000
     39 H4'         -3.3220    -5.0350     6.6060 ha         1 MXA       0.144000
     40 H511        -1.6700    -5.6230     7.0080 h1         1 MXA       0.043367
     41 H512        -2.7310    -5.0560     8.3050 h1         1 MXA       0.043367
     42 H513        -1.0480    -5.4730     8.6570 h1         1 MXA       0.043367
     43 H6'         -1.2730    -1.2790     6.6440 ha         1 MXA       0.149000
@<TRIPOS>BOND
     1     1     2 ar
     2     1    13 ar
     3     2     3 1
     4     2     4 ar
     5     3    25 1
     6     3    26 1
     7     4     5 ar
     8     5     6 1
     9     5     7 ar
    10     6    27 1
    11     6    28 1
    12     7     8 ar
    13     7    13 ar
    14     8     9 1
    15     8    10 ar
    16     9    29 1
    17     9    30 1
    18     9    31 1
    19    10    11 ar
    20    10    14 1
    21    11    12 ar
    22    11    32 1
    23    12    13 ar
    24    14    15 1
    25    14    33 1
    26    14    34 1
    27    15    16 ar
    28    15    24 ar
    29    16    17 1
    30    16    19 ar
    31    17    18 1
    32    18    35 1
    33    18    36 1
    34    18    37 1
    35    19    20 ar
    36    19    38 1
    37    20    21 ar
    38    20    39 1
    39    21    22 1
    40    21    24 ar
    41    22    23 1
    42    23    40 1
    43    23    41 1
    44    23    42 1
    45    24    43 1
@<TRIPOS>SUBSTRUCTURE
     1 MXA         1 TEMP              0 ****  ****    0 ROOT
