@<TRIPOS>MOLECULE
molecule
   48    49     1     0     0
SMALL
bcc


@<TRIPOS>ATOM
      1 C1           0.0000     0.0000     0.0000 cc         1 MXC      -0.293600
      2 C2           1.3840     0.0000     0.0000 cd         1 MXC       0.114000
      3 C3           2.0720     0.0000     1.2270 cd         1 MXC      -0.172300
      4 C4           3.4230     0.0010     1.5150 cc         1 MXC      -0.012000
      5 C5           3.5470    -0.0000     2.9230 cc         1 MXC      -0.299200
      6 C6           2.2520     0.0000     3.4510 cd         1 MXC       0.242900
      7 C7          -0.0140    -0.0010     2.4300 cd         1 MXC      -0.036300
      8 C8          -0.7090    -0.0010     1.2860 cc         1 MXC      -0.198000
      9 C9          -0.7480     0.0060    -1.2670 c          1 MXC       0.506700
     10 C10          4.7570     0.0000     3.6620 c          1 MXC       0.606100
     11 C11          0.4950     0.2530     4.9870 c3         1 MXC       0.082500
     12 C12         -0.2610    -1.0490     4.9160 c          1 MXC       0.844600
     13 C13          0.2740     0.8970     6.3570 c3         1 MXC      -0.058700
     14 C14          0.8900     0.0120     7.4410 c3         1 MXC      -0.060100
     15 C15         -1.2270     1.0470     6.6140 c3         1 MXC       0.147400
     16 C16         -2.7120     1.8620     8.2950 c          1 MXC       0.574100
     17 N1           1.3690     0.0000     2.4250 na         1 MXC       0.020700
     18 N2          -2.0960     0.0060    -1.2530 nz         1 MXC      -0.670400
     19 N3           1.9290    -0.0010     4.7910 nu         1 MXC      -0.736000
     20 N4          -2.9760     2.4250     9.4900 nz         1 MXC      -0.650400
     21 O1           5.8220     0.0000     3.0810 o          1 MXC      -0.522100
     22 O2          -0.1510     0.0120    -2.3260 o          1 MXC      -0.475100
     23 O3           0.3350    -2.0830     4.7220 o          1 MXC      -0.794300
     24 O4          -1.5930    -1.0610     5.0680 o          1 MXC      -0.794300
     25 O7          -1.4370     1.6590     7.9140 os         1 MXC      -0.381900
     26 O8          -3.6240     1.5380     7.5600 o          1 MXC      -0.437000
     27 S1           1.0600     2.5310     6.3910 s4         1 MXC       0.662700
     28 H2           1.9320     0.0000    -0.9350 ha         1 MXC       0.173000
     29 H4           4.2340     0.0010     0.7970 ha         1 MXC       0.185000
     30 H7          -0.5430    -0.0010     3.3750 h4         1 MXC       0.239000
     31 H8          -1.7920    -0.0010     1.3090 ha         1 MXC       0.128000
     32 H10          4.7300    -0.0070     4.7450 h4         1 MXC      -0.004800
     33 H11          0.1380     0.9210     4.2130 h1         1 MXC       0.079700
     34 H14          1.7440     0.5080     7.8860 hc         1 MXC       0.052700
     35 H14A         1.2050    -0.9010     6.9500 hc         1 MXC       0.052700
     36 H14B         0.1520    -0.2120     8.2020 hc         1 MXC       0.052700
     37 H15         -1.6960     0.0710     6.5930 h1         1 MXC       0.118700
     38 H15A        -1.6640     1.6740     5.8450 h1         1 MXC       0.118700
     39 HN2         -2.4400     0.0080    -2.1930 hn         1 MXC       0.471133
     40 HN2A        -2.4250    -0.8130    -0.7800 hn         1 MXC       0.471133
     41 HN3          2.4220    -0.5990     5.4240 hn         1 MXC       0.469800
     42 HN4         -2.3610     2.0450    10.1810 hn         1 MXC       0.486133
     43 HN4A        -3.9250     2.2340     9.7460 hn         1 MXC       0.486133
     44 HO6          0.7520     4.1200     5.1490 ho         1 MXC       0.477000
     45 O5           0.6460     3.2320     7.5560 o          1 MXC      -0.578200
     46 O6           0.3480     3.2770     5.2720 oh         1 MXC      -0.647800
     47 H23         -2.4260     0.8260    -0.7840 hn         1 MXC       0.471133
     48 H43         -2.8370     3.4150     9.4310 hn         1 MXC       0.486133
@<TRIPOS>BOND
     1     1     2 2
     2     1     8 1
     3     1     9 1
     4     2     3 1
     5     3     4 2
     6     3    17 1
     7     4     5 1
     8     5     6 2
     9     5    10 1
    10     6    17 1
    11     6    19 1
    12     7     8 2
    13     7    17 1
    14     9    18 1
    15     9    22 2
    16    10    21 2
    17    11    12 1
    18    11    13 1
    19    11    19 1
    20    12    23 1
    21    12    24 1
    22    13    14 1
    23    13    15 1
    24    13    27 1
    25    15    25 1
    26    16    20 1
    27    16    25 1
    28    16    26 2
    29    45    27 2
    30    46    27 1
    31     2    28 1
    32     4    29 1
    33     7    30 1
    34     8    31 1
    35    10    32 1
    36    11    33 1
    37    14    34 1
    38    14    35 1
    39    14    36 1
    40    15    37 1
    41    15    38 1
    42    18    39 1
    43    18    40 1
    44    19    41 1
    45    20    42 1
    46    20    43 1
    47    46    44 1
    48    47    18 1
    49    48    20 1
@<TRIPOS>SUBSTRUCTURE
     1 MXC         1 TEMP              0 ****  ****    0 ROOT
