@<TRIPOS>MOLECULE
MXC
   48    49     1     0     0
SMALL
bcc


@<TRIPOS>ATOM
      1 C1           0.0000     0.0000     0.0000 cc         1 MXC      -0.347600
      2 C2           1.3840     0.0000     0.0000 cd         1 MXC       0.202000
      3 C3           2.0720     0.0000     1.2270 cd         1 MXC      -0.380300
      4 C4           3.4230     0.0010     1.5150 cc         1 MXC       0.035000
      5 C5           3.5470    -0.0000     2.9230 cc         1 MXC      -0.314200
      6 C6           2.2520     0.0000     3.4510 cd         1 MXC      -0.084100
      7 C7          -0.0140    -0.0010     2.4300 cd         1 MXC      -0.258300
      8 C8          -0.7090    -0.0010     1.2860 cc         1 MXC      -0.119000
      9 C9          -0.7480     0.0060    -1.2670 c          1 MXC       0.360700
     10 C10          4.7570     0.0000     3.6620 c          1 MXC       0.700100
     11 C11          0.4950     0.2530     4.9870 c3         1 MXC      -0.027500
     12 C12         -0.2610    -1.0490     4.9160 c          1 MXC       0.931600
     13 C13          0.2740     0.8970     6.3570 c3         1 MXC       0.080300
     14 C14          0.8900     0.0120     7.4410 c3         1 MXC       0.025900
     15 C15         -1.2270     1.0470     6.6140 c3         1 MXC       0.188400
     16 C16         -2.7120     1.8620     8.2950 c          1 MXC       0.426100
     17 N1           1.3690     0.0000     2.4250 na         1 MXC       0.590700
     18 N2          -2.0960     0.0060    -1.2530 nz         1 MXC       0.208600
     19 N3           1.9290    -0.0010     4.7910 nu         1 MXC      -0.344000
     20 N4          -2.9760     2.4250     9.4900 nz         1 MXC       0.255600
     21 O1           5.8220     0.0000     3.0810 o          1 MXC      -0.558100
     22 O2          -0.1510     0.0120    -2.3260 o          1 MXC      -0.496100
     23 O3           0.3350    -2.0830     4.7220 o          1 MXC      -0.833800
     24 O4          -1.5930    -1.0610     5.0680 o          1 MXC      -0.833800
     25 O7          -1.4370     1.6590     7.9140 os         1 MXC      -0.353900
     26 O8          -3.6240     1.5380     7.5600 o          1 MXC      -0.459000
     27 S1           1.0600     2.5310     6.3910 s4         1 MXC       0.368700
     28 H2           1.9320     0.0000    -0.9350 ha         1 MXC       0.128000
     29 H4           4.2340     0.0010     0.7970 ha         1 MXC       0.146000
     30 H7          -0.5430    -0.0010     3.3750 h4         1 MXC       0.233000
     31 H8          -1.7920    -0.0010     1.3090 ha         1 MXC       0.097000
     32 H10          4.7300    -0.0070     4.7450 h4         1 MXC      -0.041800
     33 H11          0.1380     0.9210     4.2130 h1         1 MXC       0.068700
     34 H14          1.7440     0.5080     7.8860 hc         1 MXC       0.024033
     35 H14A         1.2050    -0.9010     6.9500 hc         1 MXC       0.024033
     36 H14B         0.1520    -0.2120     8.2020 hc         1 MXC       0.024033
     37 H15         -1.6960     0.0710     6.5930 h1         1 MXC       0.085700
     38 H15A        -1.6640     1.6740     5.8450 h1         1 MXC       0.085700
     39 HN2         -2.4400     0.0080    -2.1930 hn         1 MXC       0.239467
     40 HN2A        -2.4250    -0.8130    -0.7800 hn         1 MXC       0.239467
     41 HN3          2.4220    -0.5990     5.4240 hn         1 MXC       0.321800
     42 HN4         -2.3610     2.0450    10.1810 hn         1 MXC       0.244467
     43 HN4A        -3.9250     2.2340     9.7460 hn         1 MXC       0.244467
     44 HO6          0.7520     4.1200     5.1490 ho         1 MXC       0.472000
     45 O5           0.6460     3.2320     7.5560 o          1 MXC      -0.525200
     46 O6           0.3480     3.2770     5.2720 oh         1 MXC      -0.561800
     47 H23         -2.4260     0.8260    -0.7840 hn         1 MXC       0.239467
     48 H43         -2.8370     3.4150     9.4310 hn         1 MXC       0.244467
@<TRIPOS>BOND
     1     1     2 2   
     2     1     8 1   
     3     1     9 1   
     4     2     3 1   
     5     2    28 1   
     6     3     4 2   
     7     3    17 1   
     8     4     5 1   
     9     4    29 1   
    10     5     6 2   
    11     5    10 1   
    12     6    17 1   
    13     6    19 1   
    14     7     8 2   
    15     7    17 1   
    16     7    30 1   
    17     8    31 1   
    18     9    18 1   
    19     9    22 2   
    20    10    21 2   
    21    10    32 1   
    22    11    12 1   
    23    11    13 1   
    24    11    19 1   
    25    11    33 1   
    26    12    23 1   
    27    12    24 1   
    28    13    14 1   
    29    13    15 1   
    30    13    27 1   
    31    14    34 1   
    32    14    35 1   
    33    14    36 1   
    34    15    25 1   
    35    15    37 1   
    36    15    38 1   
    37    16    20 1   
    38    16    25 1   
    39    16    26 2   
    40    18    39 1   
    41    18    40 1   
    42    18    47 1   
    43    19    41 1   
    44    20    42 1   
    45    20    43 1   
    46    20    48 1   
    47    27    45 2   
    48    27    46 1   
    49    44    46 1   
@<TRIPOS>SUBSTRUCTURE
     1 MXC         1 TEMP              0 ****  ****    0 ROOT
