@<TRIPOS>MOLECULE
MXD
   30    31     1     0     0
SMALL
bcc


@<TRIPOS>ATOM
      1 NAO          0.0000     0.0000     0.0000 nv         1 MXD       0.000800
      2 CAE          1.3880     0.0000     0.0000 ca         1 MXD      -0.239500
      3 CAF          2.0930     0.0000     1.2000 ca         1 MXD      -0.306300
      4 NAC          2.0620    -0.0070    -1.1480 na         1 MXD       0.482800
      5 OAN          1.3550    -0.0070    -2.3740 o          1 MXD      -0.548000
      6 CAA          3.3870    -0.0010    -1.1570 ca         1 MXD       0.240000
      7 NAM          4.0540    -0.0020    -2.3710 nv         1 MXD      -0.081900
      8 NAB          4.0900    -0.0000    -0.0340 nb         1 MXD      -0.671000
      9 CAD          3.4840    -0.0000     1.1510 ca         1 MXD       0.516200
     10 NAI          4.2290     0.0010     2.3220 nh         1 MXD      -0.452300
     11 CAG          5.6400     0.0000     1.9240 c3         1 MXD       0.132300
     12 CAK          3.9640    -1.2770     2.9910 c3         1 MXD       0.132300
     13 CAL          4.7610    -1.3540     4.2940 c3         1 MXD      -0.026900
     14 CAJ          6.2560    -1.2790     3.9760 c3         1 MXD      -0.028400
     15 CAH          6.5300    -0.0060     3.1690 c3         1 MXD      -0.026900
     16 HAO1        -0.5000     0.7170    -0.4880 hn         1 MXD       0.128200
     17 HAO2        -0.5000    -0.6830     0.5340 hn         1 MXD       0.128200
     18 HAF          1.5720     0.0000     2.1490 ha         1 MXD       0.144000
     19 HAM1         3.7940     0.6490    -3.0860 hn         1 MXD       0.129700
     20 HAM2         4.8290    -0.6190    -2.5160 hn         1 MXD       0.129700
     21 HAG1         5.8460    -0.8830     1.3310 h1         1 MXD       0.024950
     22 HAG2         5.8480     0.8890     1.3390 h1         1 MXD       0.024950
     23 HAK1         2.9060    -1.3530     3.2120 h1         1 MXD       0.024950
     24 HAK2         4.2600    -2.0910     2.3410 h1         1 MXD       0.024950
     25 HAL1         4.4860    -0.5240     4.9350 hc         1 MXD       0.021950
     26 HAL2         4.5450    -2.2910     4.7940 hc         1 MXD       0.021950
     27 HAJ1         6.5460    -2.1450     3.3950 hc         1 MXD       0.015700
     28 HAJ2         6.8210    -1.2490     4.9000 hc         1 MXD       0.015700
     29 HAH1         6.3060     0.8620     3.7770 hc         1 MXD       0.021950
     30 HAH2         7.5710     0.0140     2.8690 hc         1 MXD       0.021950
@<TRIPOS>BOND
     1     1     2 1   
     2     1    16 1   
     3     1    17 1   
     4     2     3 ar  
     5     2     4 2   
     6     3     9 ar  
     7     3    18 1   
     8     4     5 1   
     9     4     6 1   
    10     6     7 1   
    11     6     8 ar  
    12     7    19 1   
    13     7    20 1   
    14     8     9 ar  
    15     9    10 1   
    16    10    11 1   
    17    10    12 1   
    18    11    15 1   
    19    11    21 1   
    20    11    22 1   
    21    12    13 1   
    22    12    23 1   
    23    12    24 1   
    24    13    14 1   
    25    13    25 1   
    26    13    26 1   
    27    14    15 1   
    28    14    27 1   
    29    14    28 1   
    30    15    29 1   
    31    15    30 1   
@<TRIPOS>SUBSTRUCTURE
     1 MXD         1 TEMP              0 ****  ****    0 ROOT
