@<TRIPOS>MOLECULE
molecule
   13    12     1     0     0
SMALL
bcc


@<TRIPOS>ATOM
      1 O1           0.0000     0.0000     0.0000 oh         1 MXE      -0.597800
      2 C1           1.4280     0.0000     0.0000 c3         1 MXE       0.141400
      3 C2           1.9390     0.0000     1.4410 c3         1 MXE       0.128400
      4 O2           1.4630    -1.1660     2.1160 os         1 MXE      -0.394600
      5 C3           1.9710    -1.1090     3.4500 c3         1 MXE       0.114700
      6 HO1         -0.3140     0.0920    -0.8840 ho         1 MXE       0.399000
      7 H11          1.7890    -0.8840    -0.5110 h1         1 MXE       0.026700
      8 H12          1.7890     0.8840    -0.5110 h1         1 MXE       0.026700
      9 H21          1.5790     0.8850     1.9520 h1         1 MXE       0.032700
     10 H22          3.0220    -0.0010     1.4400 h1         1 MXE       0.032700
     11 H31          3.0540    -1.0980     3.4230 h1         1 MXE       0.030033
     12 H32          1.6130    -0.2090     3.9350 h1         1 MXE       0.030033
     13 H33          1.6330    -1.9770     4.0030 h1         1 MXE       0.030033
@<TRIPOS>BOND
     1     1     2 1
     2     1     6 1
     3     2     3 1
     4     2     7 1
     5     2     8 1
     6     3     4 1
     7     3     9 1
     8     3    10 1
     9     4     5 1
    10     5    11 1
    11     5    12 1
    12     5    13 1
@<TRIPOS>SUBSTRUCTURE
     1 MXE         1 TEMP              0 ****  ****    0 ROOT
