@<TRIPOS>MOLECULE
MXE
   13    12     1     0     0
SMALL
bcc


@<TRIPOS>ATOM
      1 O1          0.1170    0.1660   -0.1870 oh        1 MXE     -0.599800
      2 C1          1.5240    0.1010   -0.0900 c3        1 MXE      0.132400
      3 C2          1.9900    0.1380    1.3610 c3        1 MXE      0.083400
      4 O2          1.5270   -1.0730    1.9580 os        1 MXE     -0.433600
      5 C3          1.8440   -1.1590    3.3360 c3        1 MXE      0.118700
      6 HO1        -0.2350   -0.5700    0.3310 ho        1 MXE      0.413000
      7 H11         1.9030   -0.8290   -0.5910 h1        1 MXE      0.052700
      8 H12         1.8970    1.0100   -0.6330 h1        1 MXE      0.052700
      9 H21         3.1080    0.1850    1.4170 h1        1 MXE      0.038200
     10 H22         1.5470    1.0170    1.9000 h1        1 MXE      0.038200
     11 H31         1.4290   -2.1470    3.6570 h1        1 MXE      0.034700
     12 H32         1.3620   -0.3260    3.9050 h1        1 MXE      0.034700
     13 H33         2.9520   -1.1320    3.4870 h1        1 MXE      0.034700
@<TRIPOS>BOND
     1    1    2 1   
     2    1    6 1   
     3    2    3 1   
     4    2    7 1   
     5    2    8 1   
     6    3    4 1   
     7    3    9 1   
     8    3   10 1   
     9    4    5 1   
    10    5   11 1   
    11    5   12 1   
    12    5   13 1   
@<TRIPOS>SUBSTRUCTURE
     1 MXE         1 TEMP              0 ****  ****    0 ROOT
