@<TRIPOS>MOLECULE
molecule
   51    52     1     0     0
SMALL
bcc


@<TRIPOS>ATOM
      1 C1           0.0000     0.0000     0.0000 cc         1 MXF      -0.146000
      2 C2           1.3560     0.0000     0.0000 cd         1 MXF      -0.101000
      3 C3           2.0510     0.0000     1.2340 cd         1 MXF      -0.094300
      4 C4           3.3850    -0.0010     1.5250 cc         1 MXF      -0.130000
      5 C5           3.5070     0.0000     2.9390 cc         1 MXF      -0.306200
      6 C6           2.2130     0.0020     3.4610 cd         1 MXF       0.183900
      7 C7          -0.0410     0.0040     2.3930 cd         1 MXF      -0.082300
      8 C8          -0.7030     0.0020     1.2240 cc         1 MXF      -0.168000
      9 C10          4.7140    -0.0010     3.6800 c          1 MXF       0.619100
     10 C11          0.4370     0.2110     4.9860 c3         1 MXF       0.090500
     11 C12         -0.2810    -1.1070     4.8550 c          1 MXF       0.853600
     12 C13          0.1800     0.7970     6.3760 c3         1 MXF      -0.042700
     13 C14          0.8040    -0.1120     7.4370 c3         1 MXF      -0.057100
     14 C15         -1.3290     0.8970     6.6160 c3         1 MXF       0.153400
     15 C16         -2.8590     1.6080     8.3040 c          1 MXF       0.764100
     16 N1           1.3380     0.0010     2.4220 na         1 MXF       0.044700
     17 N3           1.8790     0.0030     4.8030 nu         1 MXF      -0.752000
     18 N4          -3.1550     2.1190     9.5150 ns         1 MXF      -0.593900
     19 O1           5.7820    -0.0030     3.1020 o          1 MXF      -0.574100
     20 O3          -1.6160    -1.1590     4.9870 o          1 MXF      -0.810300
     21 O4           0.3440    -2.1160     4.6320 o          1 MXF      -0.810300
     22 O7          -1.5730     1.4530     7.9340 os         1 MXF      -0.415900
     23 O8          -3.7520     1.2880     7.5430 o          1 MXF      -0.590000
     24 S1           0.9210     2.4490     6.4830 s4         1 MXF       0.635700
     25 C17         -4.5540     2.2880     9.9160 c3         1 MXF       0.123000
     26 C18         -4.6120     2.8810    11.3260 c3         1 MXF       0.066800
     27 N5          -6.0140     3.0510    11.7270 nz         1 MXF      -0.806600
     28 H1          -0.5430    -0.0010    -0.9380 ha         1 MXF       0.123000
     29 H2           1.9020    -0.0020    -0.9350 ha         1 MXF       0.134000
     30 H4           4.1990    -0.0020     0.8100 ha         1 MXF       0.159000
     31 H7          -0.5970     0.0060     3.3230 h4         1 MXF       0.222000
     32 H8          -1.7860     0.0020     1.2200 ha         1 MXF       0.146000
     33 H10          4.6850    -0.0010     4.7630 h4         1 MXF      -0.027800
     34 H11          0.0730     0.8980     4.2320 h1         1 MXF       0.087700
     35 H14          1.6370     0.3900     7.9130 hc         1 MXF       0.044700
     36 H14A         1.1510    -0.9960     6.9160 hc         1 MXF       0.044700
     37 H14B         0.0610    -0.3840     8.1770 hc         1 MXF       0.044700
     38 H15         -1.7720     1.5400     5.8650 h1         1 MXF       0.106700
     39 H15A        -1.7710    -0.0900     6.5530 h1         1 MXF       0.106700
     40 HN3          2.3880    -0.5710     5.4460 hn         1 MXF       0.443800
     41 HN4         -2.4200     2.3730    10.1440 hn         1 MXF       0.332500
     42 HO6          0.5570     4.0910     5.3280 ho         1 MXF       0.462000
     43 H17         -5.0510     2.9560     9.2230 h1         1 MXF       0.067700
     44 H17A        -5.0510     1.3250     9.9090 h1         1 MXF       0.067700
     45 H18         -4.1150     3.8440    11.3340 hx         1 MXF       0.116200
     46 H18A        -4.1160     2.2130    12.0200 hx         1 MXF       0.116200
     47 HN5         -6.4730     2.1610    11.7210 hn         1 MXF       0.458133
     48 HN5A        -6.0530     3.4400    12.6490 hn         1 MXF       0.458133
     49 O5           0.4710     3.0940     7.6680 o          1 MXF      -0.589200
     50 O6           0.2040     3.2180     5.3830 oh         1 MXF      -0.633800
     51 H53         -6.4730     3.6670    11.0860 hn         1 MXF       0.458133
@<TRIPOS>BOND
     1     1     2 2
     2     1     8 1
     3     2     3 1
     4     3     4 2
     5     3    16 1
     6     4     5 1
     7     5     6 2
     8     5     9 1
     9     6    16 1
    10     6    17 1
    11     7     8 2
    12     7    16 1
    13     9    19 2
    14    10    11 1
    15    10    12 1
    16    10    17 1
    17    11    20 1
    18    11    21 1
    19    12    13 1
    20    12    14 1
    21    12    24 1
    22    14    22 1
    23    15    18 1
    24    15    22 1
    25    15    23 2
    26    18    25 1
    27    49    24 2
    28    50    24 1
    29    25    26 1
    30    26    27 1
    31     1    28 1
    32     2    29 1
    33     4    30 1
    34     7    31 1
    35     8    32 1
    36     9    33 1
    37    10    34 1
    38    13    35 1
    39    13    36 1
    40    13    37 1
    41    14    38 1
    42    14    39 1
    43    17    40 1
    44    18    41 1
    45    50    42 1
    46    25    43 1
    47    25    44 1
    48    26    45 1
    49    26    46 1
    50    27    47 1
    51    27    48 1
    52    51    27 1
@<TRIPOS>SUBSTRUCTURE
     1 MXF         1 TEMP              0 ****  ****    0 ROOT
