@<TRIPOS>MOLECULE
molecule
   75    75     1     0     0
SMALL
bcc


@<TRIPOS>ATOM
      1 O34          0.0000     0.0000     0.0000 o          1 MXG      -0.632100
      2 C33          1.2120     0.0000     0.0000 c          1 MXG       0.659100
      3 C35          1.9650     0.0000     1.3050 c3         1 MXG      -0.171100
      4 N32          1.8850     0.0000    -1.1670 ns         1 MXG      -0.559900
      5 C30          1.1540     0.0000    -2.4360 c3         1 MXG       0.033700
      6 C31          0.8980     1.4430    -2.8770 c3         1 MXG      -0.104100
      7 C28          1.9680    -0.7090    -3.4850 c          1 MXG       0.650100
      8 O29          3.0530    -1.1690    -3.2030 o          1 MXG      -0.620100
      9 N27          1.4900    -0.8320    -4.7400 ns         1 MXG      -0.537900
     10 C23          2.2830    -1.5220    -5.7610 c3         1 MXG       0.001700
     11 C24          1.9390    -2.9890    -5.7560 c          1 MXG       0.886600
     12 O26          0.7100    -3.3900    -5.3990 o          1 MXG      -0.835300
     13 O25          2.7720    -3.8060    -6.0730 o          1 MXG      -0.835300
     14 C22          1.9690    -0.9290    -7.1370 c3         1 MXG      -0.063400
     15 C21          2.3180     0.5600    -7.1410 c3         1 MXG      -0.160400
     16 C19          2.0080     1.1440    -8.4960 c          1 MXG       0.653100
     17 O20          1.5550     0.4380    -9.3710 o          1 MXG      -0.631100
     18 N18          2.2370     2.4500    -8.7360 ns         1 MXG      -0.577900
     19 C12          1.9360     3.0180   -10.0510 c3         1 MXG       0.044700
     20 C13          0.4950     3.5280   -10.0700 c3         1 MXG      -0.091400
     21 C14         -0.4610     2.3690    -9.7830 c3         1 MXG      -0.070400
     22 C15         -1.9020     2.8800    -9.8020 c3         1 MXG      -0.113400
     23 C16         -2.8590     1.7210    -9.5160 c3         1 MXG       0.087800
     24 N17         -4.2440     2.2120    -9.5350 nz         1 MXG      -0.811600
     25 C10          2.8780     4.1580   -10.3330 c          1 MXG       0.658100
     26 O11          3.7170     4.4680    -9.5140 o          1 MXG      -0.629100
     27 N9           2.7880     4.8360   -11.4940 ns         1 MXG      -0.537900
     28 C7           3.7030     5.9470   -11.7680 c3         1 MXG       0.029700
     29 C8           3.0990     7.2320   -11.2640 c          1 MXG       0.589900
     30 O8A          2.0160     7.2210   -10.7300 o          1 MXG      -0.513100
     31 C6           3.9410     6.0530   -13.2760 c3         1 MXG       0.234600
     32 S1           4.6850     4.5100   -13.8730 ss         1 MXG      -0.421200
     33 N5           2.6740     6.3060   -13.9420 n2         1 MXG      -0.620900
     34 C4           2.3040     5.8920   -15.0920 ce         1 MXG       0.480600
     35 C4A          0.9580     6.3070   -15.5680 c          1 MXG       0.801300
     36 O4B          0.6070     6.0430   -16.6990 o          1 MXG      -0.807800
     37 O4A          0.1290     6.9740   -14.7440 o          1 MXG      -0.807800
     38 C3           3.1040     5.0400   -15.9820 ce         1 MXG      -0.277800
     39 C3A          2.5510     4.4770   -17.0520 c2         1 MXG      -0.150000
     40 C2           4.5670     4.8110   -15.6640 c3         1 MXG       0.073900
     41 H351         2.6160    -0.8650     1.3460 hc         1 MXG       0.057033
     42 H352         1.2610    -0.0380     2.1280 hc         1 MXG       0.057033
     43 H353         2.5590     0.9030     1.3800 hc         1 MXG       0.057033
     44 H32          2.8860     0.0080    -1.1670 hn         1 MXG       0.332500
     45 H30          0.2070    -0.5110    -2.3070 h1         1 MXG       0.100700
     46 H311        -0.0430     1.4960    -3.4110 hc         1 MXG       0.036700
     47 H312         1.7010     1.7690    -3.5270 hc         1 MXG       0.036700
     48 H313         0.8550     2.0850    -2.0060 hc         1 MXG       0.036700
     49 H27          0.5730    -0.4970    -4.9610 hn         1 MXG       0.299500
     50 H23          3.3370    -1.3980    -5.5450 h1         1 MXG       0.077700
     51 H221         0.9150    -1.0540    -7.3520 hc         1 MXG       0.064700
     52 H222         2.5550    -1.4390    -7.8920 hc         1 MXG       0.064700
     53 H211         3.3720     0.6850    -6.9260 hc         1 MXG       0.060200
     54 H212         1.7320     1.0710    -6.3860 hc         1 MXG       0.060200
     55 H18          2.6200     3.0300    -8.0160 hn         1 MXG       0.336500
     56 H12          2.0580     2.2540   -10.8090 h1         1 MXG       0.103700
     57 H131         0.2730     3.9460   -11.0440 hc         1 MXG       0.063200
     58 H132         0.3730     4.2930    -9.3130 hc         1 MXG       0.063200
     59 H141        -0.3390     1.6050   -10.5410 hc         1 MXG       0.072700
     60 H142        -0.2390     1.9510    -8.8090 hc         1 MXG       0.072700
     61 H151        -2.1240     3.2990   -10.7760 hc         1 MXG       0.063200
     62 H152        -2.0250     3.6440    -9.0440 hc         1 MXG       0.063200
     63 H161        -2.6380     1.3020    -8.5420 hx         1 MXG       0.117200
     64 H162        -2.7370     0.9570   -10.2740 hx         1 MXG       0.117200
     65 H171        -4.3560     2.9200    -8.8370 hn         1 MXG       0.451133
     66 H172        -4.8690     1.4540    -9.3440 hn         1 MXG       0.451133
     67 HN9          2.1150     4.5620   -12.1820 hn         1 MXG       0.344500
     68 HC7          4.6470     5.7690   -11.2660 h1         1 MXG       0.098700
     69 HC8          3.6510     8.1600   -11.3510 h4         1 MXG      -0.005800
     70 HC6          4.6180     6.8740   -13.4780 h2         1 MXG       0.077700
     71 HC31         3.1480     3.8490   -17.7030 ha         1 MXG       0.142000
     72 HC32         1.5040     4.6450   -17.2730 ha         1 MXG       0.142000
     73 HC21         4.9320     3.9480   -16.2070 h1         1 MXG       0.066200
     74 HC22         5.1430     5.6900   -15.9280 h1         1 MXG       0.066200
     75 H173        -4.4480     2.6000   -10.4340 hn         1 MXG       0.451133
@<TRIPOS>BOND
     1     1     2 2
     2     2     3 1
     3     2     4 1
     4     3    41 1
     5     3    42 1
     6     3    43 1
     7     4     5 1
     8     4    44 1
     9     5     6 1
    10     5     7 1
    11     5    45 1
    12     6    46 1
    13     6    47 1
    14     6    48 1
    15     7     8 2
    16     7     9 1
    17     9    10 1
    18     9    49 1
    19    10    11 1
    20    10    14 1
    21    10    50 1
    22    11    12 1
    23    11    13 1
    24    14    15 1
    25    14    51 1
    26    14    52 1
    27    15    16 1
    28    15    53 1
    29    15    54 1
    30    16    17 2
    31    16    18 1
    32    18    19 1
    33    18    55 1
    34    19    20 1
    35    19    25 1
    36    19    56 1
    37    20    21 1
    38    20    57 1
    39    20    58 1
    40    21    22 1
    41    21    59 1
    42    21    60 1
    43    22    23 1
    44    22    61 1
    45    22    62 1
    46    23    24 1
    47    23    63 1
    48    23    64 1
    49    24    65 1
    50    24    66 1
    51    25    26 2
    52    25    27 1
    53    27    28 1
    54    27    67 1
    55    28    29 1
    56    28    31 1
    57    28    68 1
    58    29    30 2
    59    29    69 1
    60    31    32 1
    61    31    33 1
    62    31    70 1
    63    32    40 1
    64    33    34 2
    65    34    35 1
    66    34    38 1
    67    35    36 1
    68    35    37 1
    69    38    39 2
    70    38    40 1
    71    39    71 1
    72    39    72 1
    73    40    73 1
    74    40    74 1
    75    75    24 1
@<TRIPOS>SUBSTRUCTURE
     1 MXG         1 TEMP              0 ****  ****    0 ROOT
