@<TRIPOS>MOLECULE
MXI
   52    55     1     0     0
SMALL
bcc


@<TRIPOS>ATOM
      1 N26        -0.1780   -0.5460   -0.2560 nh        1 MXI     -0.922500
      2 C8          1.1930   -0.2690   -0.1370 ca        1 MXI      0.625200
      3 N9          1.7540   -0.1810    1.1150 nb        1 MXI     -0.720000
      4 C10         3.0820   -0.0140    1.1840 ca        1 MXI      0.434200
      5 C11         3.9350    0.0900    0.0730 ca        1 MXI     -0.272300
      6 C7          1.9830   -0.1610   -1.3210 ca        1 MXI     -0.304300
      7 C6          3.3660    0.0140   -1.2060 ca        1 MXI      0.060000
      8 C5          4.2020    0.0940   -2.3870 cc        1 MXI     -0.168600
      9 N1          3.9640   -0.6760   -3.5340 na        1 MXI     -0.305900
     10 C2          4.9790   -0.3880   -4.4560 cc        1 MXI      0.423800
     11 C22         5.0430   -1.0480   -5.8110 c3        1 MXI     -0.075300
     12 C24         3.7780   -0.7120   -6.5920 c3        1 MXI     -0.088100
     13 C23         6.2560   -0.5500   -6.5860 c3        1 MXI     -0.088100
     14 C25         5.1520   -2.5580   -5.6290 c3        1 MXI     -0.088100
     15 C4          5.3730    0.8510   -2.6700 cd        1 MXI      0.388800
     16 N3          5.8370    0.5350   -3.9530 nd        1 MXI     -0.661000
     17 C12         6.0320    1.8320   -1.8250 ca        1 MXI     -0.123500
     18 C21         7.4080    1.9520   -1.8210 ca        1 MXI     -0.076000
     19 C20         8.0490    2.9220   -1.0050 ca        1 MXI     -0.072000
     20 C15         7.2640    3.7820   -0.1930 ca        1 MXI     -0.002000
     21 C14         5.8470    3.6470   -0.2210 ca        1 MXI     -0.133000
     22 C13         5.2500    2.7010   -1.0120 ca        1 MXI     -0.106000
     23 C19         9.4630    3.0540   -0.9840 ca        1 MXI     -0.080000
     24 C18        10.0750    3.9960   -0.1930 ca        1 MXI     -0.188000
     25 C17         9.2820    4.8520    0.6160 ca        1 MXI      0.123100
     26 C16         7.8990    4.7520    0.6210 ca        1 MXI     -0.161000
     27 O27         9.8070    5.8260    1.4460 os        1 MXI     -0.328900
     28 C28        11.2220    5.9630    1.4440 c3        1 MXI      0.114700
     29 H261       -0.6000   -0.1300   -1.0550 hn        1 MXI      0.402300
     30 H262       -0.7130   -0.4450    0.5790 hn        1 MXI      0.402300
     31 H7          1.5030   -0.2080   -2.3070 ha        1 MXI      0.138000
     32 H10         3.4910    0.0460    2.2100 h4        1 MXI      0.025100
     33 H11         5.0160    0.2360    0.2020 ha        1 MXI      0.161000
     34 H1          3.2370   -1.3330   -3.6430 hn        1 MXI      0.304700
     35 H241        3.6580    0.3940   -6.6770 hc        1 MXI      0.043033
     36 H242        3.8460   -1.1450   -7.6190 hc        1 MXI      0.043033
     37 H243        2.8750   -1.1360   -6.0910 hc        1 MXI      0.043033
     38 H231        6.2890   -1.0460   -7.5860 hc        1 MXI      0.043033
     39 H232        7.1970   -0.7880   -6.0350 hc        1 MXI      0.043033
     40 H233        6.1990    0.5550   -6.7350 hc        1 MXI      0.043033
     41 H251        6.0380   -2.8100   -4.9990 hc        1 MXI      0.043033
     42 H252        4.2360   -2.9700   -5.1440 hc        1 MXI      0.043033
     43 H253        5.2710   -3.0470   -6.6260 hc        1 MXI      0.043033
     44 H21         8.0310    1.3000   -2.4530 ha        1 MXI      0.147000
     45 H13         4.1540    2.5960   -1.0330 ha        1 MXI      0.139000
     46 H19        10.0640    2.3850   -1.6190 ha        1 MXI      0.136000
     47 H14         5.2430    4.3220    0.4040 ha        1 MXI      0.135000
     48 H16         7.2960    5.4200    1.2510 ha        1 MXI      0.150000
     49 H18        11.1700    4.0870   -0.1880 ha        1 MXI      0.137000
     50 H281       11.4030    6.8000    2.1650 h1        1 MXI      0.043367
     51 H282       11.5930    6.2340    0.4250 h1        1 MXI      0.043367
     52 H283       11.7110    5.0240    1.8010 h1        1 MXI      0.043367
@<TRIPOS>BOND
     1    1    2 1
     2    1   29 1
     3    1   30 1
     4    2    3 ar
     5    2    6 ar
     6    3    4 ar
     7    4    5 ar
     8    4   32 1
     9    5    7 ar
    10    5   33 1
    11    6    7 ar
    12    6   31 1
    13    7    8 1
    14    8    9 1
    15    8   15 2
    16    9   10 1
    17    9   34 1
    18   10   11 1
    19   10   16 2
    20   11   12 1
    21   11   13 1
    22   11   14 1
    23   12   35 1
    24   12   36 1
    25   12   37 1
    26   13   38 1
    27   13   39 1
    28   13   40 1
    29   14   41 1
    30   14   42 1
    31   14   43 1
    32   15   16 1
    33   15   17 1
    34   17   18 ar
    35   17   22 ar
    36   18   19 ar
    37   18   44 1
    38   19   20 ar
    39   19   23 ar
    40   20   21 ar
    41   20   26 ar
    42   21   22 ar
    43   21   47 1
    44   22   45 1
    45   23   24 ar
    46   23   46 1
    47   24   25 ar
    48   24   49 1
    49   25   26 ar
    50   25   27 1
    51   26   48 1
    52   27   28 1
    53   28   50 1
    54   28   51 1
    55   28   52 1
@<TRIPOS>SUBSTRUCTURE
     1 MXI         1 TEMP              0 ****  ****    0 ROOT
