@<TRIPOS>MOLECULE
MXL
   54    57     1     0     0
SMALL
bcc


@<TRIPOS>ATOM
      1 O1           0.0000     0.0000     0.0000 o          1 MXL      -0.589500
      2 C1           1.2130     0.0000     0.0000 c          1 MXL       0.653500
      3 C2           2.2990     0.0000     1.0540 cy         1 MXL       0.090200
      4 C3           3.3290     0.2710    -0.0290 cy         1 MXL       0.203500
      5 N1           2.1700    -0.0040    -0.9320 nj         1 MXL      -0.032000
      6 C4           2.3000    -0.3040    -2.3110 ce         1 MXL      -0.010600
      7 C5           3.5360    -0.7090    -2.6560 c2         1 MXL      -0.305400
      8 C6           4.6680    -0.8040    -1.6800 c3         1 MXL       0.294600
      9 O2           4.2690    -0.7760    -0.3130 os         1 MXL      -0.353600
     10 C7           1.1880    -0.1860    -3.2730 c          1 MXL       0.976800
     11 O3           1.3830    -0.3960    -4.4540 o          1 MXL      -0.861800
     12 O4          -0.0420     0.1550    -2.8420 o          1 MXL      -0.861800
     13 C8           3.7940    -1.0820    -4.0930 c3         1 MXL       0.184900
     14 O5           2.1720     1.0710     1.9920 os         1 MXL      -0.403600
     15 C9           1.2800     0.7940     3.0740 c3         1 MXL       0.240700
     16 N2           2.4720    -1.3010     1.7040 ns         1 MXL      -0.185900
     17 C10          2.4150    -2.4330     0.9730 c          1 MXL       0.618100
     18 O6           2.2200    -2.3730    -0.2230 o          1 MXL      -0.645100
     19 C11          2.5930    -3.7720     1.6410 c3         1 MXL      -0.179400
     20 C12          3.9490    -3.8290     2.2960 c          1 MXL       0.981600
     21 O7           4.3300    -4.9340     2.9550 o          1 MXL      -0.887300
     22 O8           4.6940    -2.8800     2.2260 o          1 MXL      -0.887300
     23 C13          2.4860    -4.8650     0.6100 ca         1 MXL       0.002700
     24 C14          1.5040    -5.8310     0.7290 ca         1 MXL      -0.058000
     25 C15          1.4040    -6.8360    -0.2140 ca         1 MXL      -0.149500
     26 C16          2.2900    -6.8740    -1.2820 ca         1 MXL       0.081100
     27 C17          3.2730    -5.9030    -1.3980 ca         1 MXL      -0.149500
     28 C18          3.3660    -4.8980    -0.4550 ca         1 MXL      -0.058000
     29 O9           2.1920    -7.8610    -2.2120 oh         1 MXL      -0.510100
     30 S1           4.2510     0.3980    -5.0290 ss         1 MXL      -0.389400
     31 C19          4.4880    -0.3110    -6.6240 cc         1 MXL       0.417800
     32 N3           4.3470    -1.5790    -6.9460 nd         1 MXL      -0.404000
     33 N4           4.5950    -1.7570    -8.1930 nd         1 MXL       0.024000
     34 N5           4.9090    -0.6390    -8.7520 nc         1 MXL      -0.454800
     35 N6           4.8460     0.3490    -7.7520 na         1 MXL       0.325600
     36 C20          5.1120     1.7820    -7.8980 c3         1 MXL       0.039600
     37 H31          3.6960     1.2880    -0.0860 h2         1 MXL       0.037700
     38 H61          5.3420     0.0250    -1.8570 h1         1 MXL      -0.002300
     39 H62          5.1980    -1.7310    -1.8620 h1         1 MXL      -0.002300
     40 H81          2.8980    -1.5170    -4.5200 h1         1 MXL       0.079200
     41 H82          4.6020    -1.8030    -4.1390 h1         1 MXL       0.079200
     42 H91          1.0200     1.7190     3.5730 h1         1 MXL      -0.008633
     43 H92          1.7630     0.1270     3.7780 h1         1 MXL      -0.008633
     44 H93          0.3820     0.3260     2.6900 h1         1 MXL      -0.008633
     45 HN21         2.6010    -1.3520     2.6950 hn         1 MXL       0.189500
     46 H111         1.8240    -3.9070     2.3920 hc         1 MXL       0.031700
     47 H141         0.8130    -5.8010     1.5620 ha         1 MXL       0.110500
     48 H151         0.6340    -7.5920    -0.1210 ha         1 MXL       0.093500
     49 H171         3.9650    -5.9300    -2.2320 ha         1 MXL       0.093500
     50 H181         4.1350    -4.1400    -0.5460 ha         1 MXL       0.110500
     51 HO91         2.6590    -8.6230    -1.9110 ho         1 MXL       0.377000
     52 H201         5.3050     2.0090    -8.9390 h1         1 MXL       0.022700
     53 H202         5.9770     2.0510    -7.3030 h1         1 MXL       0.022700
     54 H203         4.2510     2.3450    -7.5590 h1         1 MXL       0.022700
@<TRIPOS>BOND
     1     1     2 2   
     2     2     3 1   
     3     2     5 1   
     4     3     4 1   
     5     3    14 1   
     6     3    16 1   
     7     4     5 1   
     8     4     9 1   
     9     4    37 1   
    10     5     6 1   
    11     6     7 2   
    12     6    10 1   
    13     7     8 1   
    14     7    13 1   
    15     8     9 1   
    16     8    38 1   
    17     8    39 1   
    18    10    11 1   
    19    10    12 1   
    20    13    30 1   
    21    13    40 1   
    22    13    41 1   
    23    14    15 1   
    24    15    42 1   
    25    15    43 1   
    26    15    44 1   
    27    16    17 1   
    28    16    45 1   
    29    17    18 2   
    30    17    19 1   
    31    19    20 1   
    32    19    23 1   
    33    19    46 1   
    34    20    21 1   
    35    20    22 1   
    36    23    24 ar  
    37    23    28 ar  
    38    24    25 ar  
    39    24    47 1   
    40    25    26 ar  
    41    25    48 1   
    42    26    27 ar  
    43    26    29 1   
    44    27    28 ar  
    45    27    49 1   
    46    28    50 1   
    47    29    51 1   
    48    30    31 1   
    49    31    32 2   
    50    31    35 1   
    51    32    33 1   
    52    33    34 2   
    53    34    35 1   
    54    35    36 1   
    55    36    52 1   
    56    36    53 1   
    57    36    54 1   
@<TRIPOS>SUBSTRUCTURE
     1 MXL         1 TEMP              0 ****  ****    0 ROOT
