@<TRIPOS>MOLECULE
MXM
   36    38     1     0     0
SMALL
bcc


@<TRIPOS>ATOM
      1 CAW          0.0000     0.0000     0.0000 c3         1 MXM       0.119200
      2 CAV          1.5070     0.0000     0.0000 cc         1 MXM      -0.122700
      3 SAT          2.5420     0.0000     1.4260 ss         1 MXM      -0.329300
      4 CAU          2.2910    -0.0060    -1.0800 cd         1 MXM       0.376200
      5 NAS          3.5850    -0.0040    -0.8180 nd         1 MXM      -0.558000
      6 CAR          3.9320    -0.0000     0.4300 cc         1 MXM       0.409300
      7 NAP          5.2410     0.0010     0.8920 ns         1 MXM      -0.113400
      8 CAN          6.2650     0.0000     0.0160 c          1 MXM       0.566300
      9 OAQ          6.0490    -0.1490    -1.1740 o          1 MXM      -0.548100
     10 CAG          7.5950     0.1750     0.4780 ce         1 MXM      -0.074200
     11 CAC          8.6140    -0.0000    -0.3900 cf         1 MXM       0.149900
     12 OAH          8.3070    -0.3410    -1.6650 oh         1 MXM      -0.459100
     13 CAA         10.0320     0.1550    -0.0440 ca         1 MXM      -0.000800
     14 CAD         10.9940     0.2870    -1.0510 ca         1 MXM      -0.097000
     15 CAI         12.3240     0.4330    -0.7130 ca         1 MXM      -0.051000
     16 CAM         12.7150     0.4520     0.6130 ca         1 MXM      -0.116000
     17 CAF         11.7690     0.3220     1.6190 ca         1 MXM       0.019000
     18 CAB         10.4430     0.1750     1.2950 ca         1 MXM      -0.122500
     19 SAE          9.2110     0.0020     2.5490 sy         1 MXM       1.046200
     20 OAK          9.5250     0.9440     3.5660 o          1 MXM      -0.571300
     21 OAL          9.0600    -1.3900     2.7880 o          1 MXM      -0.571300
     22 NAJ          7.8030     0.5310     1.8240 nh         1 MXM      -0.349300
     23 CAO          6.8210     1.3290     2.5610 c3         1 MXM       0.243100
     24 H1          -0.3610    -0.8880    -0.5050 hc         1 MXM       0.011033
     25 H2          -0.3610     0.8810    -0.5160 hc         1 MXM       0.011033
     26 H3          -0.3610     0.0060     1.0210 hc         1 MXM       0.011033
     27 H4           1.8970    -0.0090    -2.0890 h4         1 MXM       0.004100
     28 H5           5.4240    -0.0640     1.8740 hn         1 MXM       0.199500
     29 H7           8.3950     0.4140    -2.2230 ho         1 MXM       0.412000
     30 H8          10.6960     0.2740    -2.0920 ha         1 MXM       0.115000
     31 H9          13.0680     0.5360    -1.4940 ha         1 MXM       0.105000
     32 H10         13.7610     0.5680     0.8670 ha         1 MXM       0.111000
     33 H11         12.0760     0.3370     2.6580 ha         1 MXM       0.117000
     34 H14          6.1800     1.8500     1.8600 h1         1 MXM       0.019033
     35 H15          6.2200     0.6770     3.1840 h1         1 MXM       0.019033
     36 H16          7.3360     2.0500     3.1840 h1         1 MXM       0.019033
@<TRIPOS>BOND
     1     1     2 1   
     2     1    24 1   
     3     1    25 1   
     4     1    26 1   
     5     2     3 1   
     6     2     4 2   
     7     3     6 1   
     8     4     5 1   
     9     4    27 1   
    10     5     6 2   
    11     6     7 1   
    12     7     8 1   
    13     7    28 1   
    14     8     9 2   
    15     8    10 1   
    16    10    11 2   
    17    10    22 1   
    18    11    12 1   
    19    11    13 1   
    20    12    29 1   
    21    13    14 ar  
    22    13    18 ar  
    23    14    15 ar  
    24    14    30 1   
    25    15    16 ar  
    26    15    31 1   
    27    16    17 ar  
    28    16    32 1   
    29    17    18 ar  
    30    17    33 1   
    31    18    19 1   
    32    19    20 2   
    33    19    21 2   
    34    19    22 1   
    35    22    23 1   
    36    23    34 1   
    37    23    35 1   
    38    23    36 1   
@<TRIPOS>SUBSTRUCTURE
     1 MXM         1 TEMP              0 ****  ****    0 ROOT
