@<TRIPOS>MOLECULE
molecule
   17    17     1     0     0
SMALL
bcc


@<TRIPOS>ATOM
      1 C1           0.0000     0.0000     0.0000 ca         1 MXN      -0.102300
      2 C2           1.3820     0.0000     0.0000 ca         1 MXN      -0.100500
      3 C3           2.0730     0.0000     1.1970 ca         1 MXN      -0.136500
      4 C4           1.3820     0.0010     2.3940 ca         1 MXN      -0.106000
      5 C5           0.0000     0.0030     2.3940 ca         1 MXN      -0.136500
      6 C6          -0.6910     0.0010     1.1970 ca         1 MXN      -0.100500
      7 C7          -0.7530     0.0050    -1.3050 c3         1 MXN       0.340500
      8 C8          -1.1040     1.3890    -1.6650 c1         1 MXN       0.171700
      9 N9          -1.3650     2.4540    -1.9600 n1         1 MXN      -0.353800
     10 O10         -1.9480    -0.7680    -1.1700 oh         1 MXN      -0.692800
     11 H2           1.8440     0.0490    -0.9790 ha         1 MXN       0.138000
     12 H3           3.1340     0.1230     1.3800 ha         1 MXN       0.140500
     13 H4           1.8760    -0.1700     3.3430 ha         1 MXN       0.134000
     14 H5          -0.7750     0.2660     3.1040 ha         1 MXN       0.140500
     15 H6          -1.7720    -0.0270     1.2490 ha         1 MXN       0.138000
     16 H7          -0.1320    -0.4230    -2.0820 h1         1 MXN       0.060700
     17 HO10        -2.7010    -0.8870    -1.7240 ho         1 MXN       0.463000
@<TRIPOS>BOND
     1     7     1 1
     2     1     2 ar
     3     1     6 ar
     4     2     3 ar
     5     2    11 1
     6     3     4 ar
     7     3    12 1
     8     5     4 ar
     9     4    13 1
    10     6     5 ar
    11     5    14 1
    12     6    15 1
    13    10     7 1
    14     7     8 1
    15     7    16 1
    16     8     9 3
    17    10    17 1
@<TRIPOS>SUBSTRUCTURE
     1 MXN         1 TEMP              0 ****  ****    0 ROOT
