@<TRIPOS>MOLECULE
MXP
   61    64     1     0     0
SMALL
bcc


@<TRIPOS>ATOM
      1 O1           0.0000     0.0000     0.0000 os         1 MXP      -0.127000
      2 C1          -0.0920    -0.0030     2.3460 c2         1 MXP      -0.321000
      3 N1          -5.9940     4.4770    -0.4060 ny         1 MXP       0.140000
      4 C2           1.3130    -0.0020     2.4230 c2         1 MXP       0.247000
      5 C3           2.0510     0.0000     1.2290 c2         1 MXP      -0.358000
      6 O2           1.9380    -0.0020     3.6210 oh         1 MXP      -0.235000
      7 C4           1.3450     0.0000     0.0000 c2         1 MXP       0.431000
      8 C5          -0.7010    -0.0020     1.1420 c2         1 MXP       0.151000
      9 C6           3.5190     0.0020     1.2520 c2         1 MXP       0.405000
     10 C7           4.2600    -1.1610     0.7610 c2         1 MXP      -0.095000
     11 O3           1.9550     0.0010    -1.0540 o          1 MXP      -0.358000
     12 C8           5.6080    -1.1960     0.8640 c3         1 MXP      -0.141000
     13 C9           6.3480    -2.3590     0.3730 c2         1 MXP      -0.479000
     14 C10          7.6790    -2.3930     0.4750 c2         1 MXP       0.073000
     15 C11          8.4410    -3.5910    -0.0310 c3         1 MXP      -0.078000
     16 C12          8.9220    -3.3230    -1.4590 c3         1 MXP      -0.102000
     17 C13          9.6960    -4.5390    -1.9710 c3         1 MXP      -0.106000
     18 C14         10.1780    -4.2710    -3.3990 c3         1 MXP      -0.112000
     19 C15          3.5200    -2.3180     0.1410 c3         1 MXP      -0.082000
     20 C16          8.4170    -1.2360     1.0950 c3         1 MXP      -0.149000
     21 C17         -2.2060    -0.0030     1.0790 c3         1 MXP      -0.070000
     22 C18         -2.7110     1.4340     0.9340 c3         1 MXP      -0.112000
     23 C19         -4.2400     1.4340     0.8710 DU         1 MXP       0.111000
     24 C20         -4.7380     2.8490     0.7280 c2         1 MXP      -0.644000
     25 C21         -5.5340     3.1700    -0.2730 c2         1 MXP      -0.085000
     26 C22         -6.8080     4.8050    -1.4280 c2         1 MXP       0.326000
     27 C23         -8.1270     6.3510    -2.6810 c3         1 MXP       0.098000
     28 O4           4.1200     0.9720     1.6800 o          1 MXP      -0.325000
     29 O5          -7.2530     6.0700    -1.5560 os         1 MXP      -0.264000
     30 O6          -7.1420     3.9610    -2.2350 o          1 MXP      -0.369000
     31 H1          -0.6850    -0.0040     3.2530 ha         1 MXP       0.141000
     32 HN1         -5.6900     5.1820     0.2370 hn         1 MXP       0.072000
     33 HO2          1.7000     0.7750     4.1000 ho         1 MXP       0.222000
     34 H8           6.1350    -0.3860     1.3530 hc         1 MXP       0.109000
     35 H9           6.2650    -1.4180    -0.1570 DU         1 MXP       0.298000
     36 H11          7.7950    -4.4600    -0.0240 hc         1 MXP       0.072000
     37 H11A         9.2960    -3.7720     0.6100 hc         1 MXP       0.072000
     38 H12          9.5690    -2.4540    -1.4650 hc         1 MXP       0.057000
     39 H12A         8.0680    -3.1420    -2.1000 hc         1 MXP       0.057000
     40 H13          9.0500    -5.4080    -1.9650 hc         1 MXP       0.052500
     41 H13A        10.5510    -4.7200    -1.3300 hc         1 MXP       0.052500
     42 H14         10.7260    -5.1320    -3.7630 hc         1 MXP       0.039667
     43 H14A        10.8260    -3.4030    -3.4050 hc         1 MXP       0.039667
     44 H14B         9.3240    -4.0890    -4.0400 hc         1 MXP       0.039667
     45 H15          2.5230    -2.3760     0.5600 hc         1 MXP       0.065000
     46 H15A         4.0520    -3.2390     0.3470 hc         1 MXP       0.065000
     47 H15B         3.4540    -2.1720    -0.9300 hc         1 MXP       0.065000
     48 H16          8.0220    -1.0440     2.0860 hc         1 MXP       0.062667
     49 H16A         9.4710    -1.4770     1.1670 hc         1 MXP       0.062667
     50 H16B         8.2900    -0.3540     0.4790 hc         1 MXP       0.062667
     51 H17         -2.6060    -0.4360     1.9880 hc         1 MXP       0.073000
     52 H17A        -2.5320    -0.5880     0.2270 hc         1 MXP       0.073000
     53 H18         -2.3850     2.0190     1.7860 hc         1 MXP       0.075500
     54 H18A        -2.3120     1.8670     0.0250 hc         1 MXP       0.075500
     55 H19         -4.5660     0.8490     0.0190 ha         1 MXP       0.040000
     56 H19A        -4.6390     1.0010     1.7800 ha         1 MXP       0.040000
     57 H20         -5.3260     2.0310     1.1270 DU         1 MXP       0.193000
     58 H21         -6.3400     3.5970     0.3110 DU         1 MXP       0.217000
     59 H23         -7.6060     6.1350    -3.6060 h1         1 MXP       0.045000
     60 H23A        -9.0140     5.7330    -2.6140 h1         1 MXP       0.045000
     61 H23B        -8.4130     7.3960    -2.6640 h1         1 MXP       0.045000
@<TRIPOS>BOND
     1     1     7 1   
     2     1     8 1   
     3     2     4 1   
     4     2     8 1   
     5     2    31 1   
     6     3    25 1   
     7     3    26 1   
     8     3    32 1   
     9     3    58 1   
    10     4     5 1   
    11     4     6 1   
    12     5     7 1   
    13     5     9 1   
    14     6    33 1   
    15     7    11 1   
    16     8    21 1   
    17     9    10 1   
    18     9    28 1   
    19    10    12 1   
    20    10    19 1   
    21    12    13 1   
    22    12    34 1   
    23    12    35 1   
    24    13    14 1   
    25    13    35 1   
    26    14    15 1   
    27    14    20 1   
    28    15    16 1   
    29    15    36 1   
    30    15    37 1   
    31    16    17 1   
    32    16    38 1   
    33    16    39 1   
    34    17    18 1   
    35    17    40 1   
    36    17    41 1   
    37    18    42 1   
    38    18    43 1   
    39    18    44 1   
    40    19    45 1   
    41    19    46 1   
    42    19    47 1   
    43    20    48 1   
    44    20    49 1   
    45    20    50 1   
    46    21    22 1   
    47    21    51 1   
    48    21    52 1   
    49    22    23 1   
    50    22    53 1   
    51    22    54 1   
    52    23    24 1   
    53    23    55 1   
    54    23    56 1   
    55    23    57 1   
    56    24    25 1   
    57    24    57 1   
    58    25    58 1   
    59    26    29 1   
    60    26    30 1   
    61    27    29 1   
    62    27    59 1   
    63    27    60 1   
    64    27    61 1   
@<TRIPOS>SUBSTRUCTURE
     1 MXP         1 TEMP              0 ****  ****    0 ROOT
