@<TRIPOS>MOLECULE
molecule
   61    61     1     0     0
SMALL
bcc


@<TRIPOS>ATOM
      1 O1           0.0000     0.0000     0.0000 os         1 MXP      -0.295200
      2 C1          -0.0920    -0.0030     2.3460 cc         1 MXP      -0.320000
      3 N1          -5.9940     4.4770    -0.4060 ns         1 MXP      -0.467100
      4 C2           1.3130    -0.0020     2.4230 cc         1 MXP       0.245100
      5 C3           2.0510     0.0000     1.2290 cd         1 MXP      -0.352400
      6 O2           1.9380    -0.0020     3.6210 oh         1 MXP      -0.495100
      7 C4           1.3450     0.0000     0.0000 c          1 MXP       0.752800
      8 C5          -0.7010    -0.0020     1.1420 cd         1 MXP       0.176900
      9 C6           3.5190     0.0020     1.2520 c          1 MXP       0.629500
     10 C7           4.2600    -1.1610     0.7610 ce         1 MXP      -0.201400
     11 O3           1.9550     0.0010    -1.0540 o          1 MXP      -0.574500
     12 C8           5.6080    -1.1960     0.8640 cf         1 MXP      -0.054000
     13 C9           6.3480    -2.3590     0.3730 cf         1 MXP      -0.171000
     14 C10          7.6790    -2.3930     0.4750 c2         1 MXP      -0.090400
     15 C11          8.4410    -3.5910    -0.0310 c3         1 MXP      -0.045200
     16 C12          8.9220    -3.3230    -1.4590 c3         1 MXP      -0.076400
     17 C13          9.6960    -4.5390    -1.9710 c3         1 MXP      -0.085400
     18 C14         10.1780    -4.2710    -3.3990 c3         1 MXP      -0.092100
     19 C15          3.5200    -2.3180     0.1410 c3         1 MXP      -0.041900
     20 C16          8.4170    -1.2360     1.0950 c3         1 MXP      -0.060900
     21 C17         -2.2060    -0.0030     1.0790 c3         1 MXP      -0.041200
     22 C18         -2.7110     1.4340     0.9340 c3         1 MXP      -0.077400
     23 C19         -4.2400     1.4340     0.8710 c3         1 MXP      -0.023200
     24 C20         -4.7380     2.8490     0.7280 c2         1 MXP      -0.269200
     25 C21         -5.5340     3.1700    -0.2730 c2         1 MXP       0.011600
     26 C22         -6.8080     4.8050    -1.4280 c          1 MXP       0.749100
     27 C23         -8.1270     6.3510    -2.6810 c3         1 MXP       0.158700
     28 O4           4.1200     0.9720     1.6800 o          1 MXP      -0.530100
     29 O5          -7.2530     6.0700    -1.5560 os         1 MXP      -0.439900
     30 O6          -7.1420     3.9610    -2.2350 o          1 MXP      -0.596000
     31 H1          -0.6850    -0.0040     3.2530 ha         1 MXP       0.161000
     32 HN1         -5.7420     5.1670     0.2740 hn         1 MXP       0.331500
     33 HO2          1.6840     0.7650     4.1090 ho         1 MXP       0.442000
     34 H8           6.1400    -0.3640     1.3090 ha         1 MXP       0.149000
     35 H9           5.8160    -3.1910    -0.0720 ha         1 MXP       0.135000
     36 H11          9.2960    -3.7720     0.6100 hc         1 MXP       0.048700
     37 H11A         7.7950    -4.4600    -0.0240 hc         1 MXP       0.048700
     38 H12          8.0680    -3.1420    -2.1000 hc         1 MXP       0.046700
     39 H12A         9.5690    -2.4540    -1.4650 hc         1 MXP       0.046700
     40 H13         10.5510    -4.7200    -1.3300 hc         1 MXP       0.039700
     41 H13A         9.0500    -5.4080    -1.9650 hc         1 MXP       0.039700
     42 H14          9.3240    -4.0900    -4.0410 hc         1 MXP       0.033700
     43 H14A        10.7270    -5.1320    -3.7630 hc         1 MXP       0.033700
     44 H14B        10.8250    -3.4020    -3.4050 hc         1 MXP       0.033700
     45 H15          3.8810    -3.2470     0.5660 hc         1 MXP       0.043367
     46 H15A         3.6870    -2.3220    -0.9290 hc         1 MXP       0.043367
     47 H15B         2.4600    -2.2180     0.3400 hc         1 MXP       0.043367
     48 H16          9.4770    -1.4570     1.1230 hc         1 MXP       0.046700
     49 H16A         8.0550    -1.0750     2.1030 hc         1 MXP       0.046700
     50 H16B         8.2510    -0.3430     0.5050 hc         1 MXP       0.046700
     51 H17         -2.5320    -0.5880     0.2270 hc         1 MXP       0.072700
     52 H17A        -2.6060    -0.4360     1.9880 hc         1 MXP       0.072700
     53 H18         -2.3120     1.8670     0.0250 hc         1 MXP       0.055700
     54 H18A        -2.3850     2.0190     1.7860 hc         1 MXP       0.055700
     55 H19         -4.6390     1.0010     1.7800 hc         1 MXP       0.048200
     56 H19A        -4.5660     0.8490     0.0190 hc         1 MXP       0.048200
     57 H20         -4.4420     3.6030     1.4470 ha         1 MXP       0.126000
     58 H21         -5.8300     2.4160    -0.9930 h4         1 MXP       0.176000
     59 H23         -7.6070     6.1300    -3.6060 h1         1 MXP       0.052700
     60 H23A        -8.4090     7.3970    -2.6670 h1         1 MXP       0.052700
     61 H23B        -9.0160     5.7360    -2.6110 h1         1 MXP       0.052700
@<TRIPOS>BOND
     1     1     7 1
     2     1     8 1
     3     2     4 1
     4     2     8 2
     5     3    25 1
     6     3    26 1
     7     4     5 2
     8     4     6 1
     9     5     7 1
    10     5     9 1
    11     7    11 2
    12     8    21 1
    13     9    10 1
    14     9    28 2
    15    10    12 2
    16    10    19 1
    17    12    13 1
    18    13    14 2
    19    14    15 1
    20    14    20 1
    21    15    16 1
    22    16    17 1
    23    17    18 1
    24    21    22 1
    25    22    23 1
    26    23    24 1
    27    24    25 2
    28    26    29 1
    29    26    30 2
    30    27    29 1
    31     2    31 1
    32     3    32 1
    33     6    33 1
    34    12    34 1
    35    13    35 1
    36    15    36 1
    37    15    37 1
    38    16    38 1
    39    16    39 1
    40    17    40 1
    41    17    41 1
    42    18    42 1
    43    18    43 1
    44    18    44 1
    45    19    45 1
    46    19    46 1
    47    19    47 1
    48    20    48 1
    49    20    49 1
    50    20    50 1
    51    21    51 1
    52    21    52 1
    53    22    53 1
    54    22    54 1
    55    23    55 1
    56    23    56 1
    57    24    57 1
    58    25    58 1
    59    27    59 1
    60    27    60 1
    61    27    61 1
@<TRIPOS>SUBSTRUCTURE
     1 MXP         1 TEMP              0 ****  ****    0 ROOT
