@<TRIPOS>MOLECULE
molecule
   52    53     1     0     0
SMALL
bcc


@<TRIPOS>ATOM
      1 C1           0.0000     0.0000     0.0000 c          1 MXR       0.599900
      2 C2           1.3470     2.6520    -2.5290 c3         1 MXR      -0.051900
      3 C3           1.5070     0.0000     0.0000 c3         1 MXR      -0.164700
      4 C4           2.0170     1.2490    -0.7210 c3         1 MXR       0.103500
      5 C5           0.9450     3.2100    -1.1820 ce         1 MXR       0.392300
      6 O6          -0.6040    -0.9080    -0.5180 o          1 MXR      -0.566100
      7 C7           2.0170     0.0000     1.4430 c3         1 MXR       0.155100
      8 O8           3.4460     0.0000     1.4430 oh         1 MXR      -0.609800
      9 C9           1.5070    -1.2480     2.1650 c3         1 MXR      -0.131100
     10 N10          1.3130     2.4410    -0.2360 n2         1 MXR      -0.577900
     11 C11          0.2160     4.4870    -0.9880 c          1 MXR       0.804300
     12 O12         -0.0970     5.1590    -1.9490 o          1 MXR      -0.805800
     13 O13         -0.0980     4.9000     0.2540 o          1 MXR      -0.805800
     14 S14          2.8060     3.5210    -3.1690 ss         1 MXR      -0.388200
     15 C15          2.1530     5.1620    -3.5870 c3         1 MXR       0.039400
     16 C16          3.2690     6.0640    -4.1600 c3         1 MXR      -0.064400
     17 C17          2.6040     6.8470    -5.3070 c3         1 MXR       0.082500
     18 C18          1.6850     1.1720    -2.2300 c3         1 MXR      -0.095700
     19 N19          1.1860     6.4300    -5.3520 n7         1 MXR      -0.753200
     20 C20          0.4750     0.2680    -2.4830 c3         1 MXR      -0.100100
     21 C21          1.1460     5.0670    -4.7610 c3         1 MXR       0.149800
     22 C22          2.6940     8.3280    -5.0370 c          1 MXR       0.661100
     23 N23          3.8380     8.9920    -5.2990 n          1 MXR      -0.515800
     24 O24          1.7380     8.9220    -4.5850 o          1 MXR      -0.556100
     25 C25          3.9250    10.4310    -5.0380 c3         1 MXR       0.103800
     26 C26          4.9920     8.2760    -5.8460 c3         1 MXR       0.103800
     27 H1          -0.5400     0.7820     0.5200 h4         1 MXR       0.031200
     28 H3           0.5210     2.7180    -3.2270 h1         1 MXR       0.085700
     29 H4           1.8690    -0.8850    -0.5110 hc         1 MXR       0.071700
     30 H5           3.0850     1.3620    -0.5800 h1         1 MXR       0.089700
     31 H8           1.6560     0.8850     1.9530 h1         1 MXR       0.066700
     32 H9           3.7610     0.2100     2.3060 ho         1 MXR       0.398000
     33 H10          2.0530    -1.3780     3.0910 hc         1 MXR       0.037367
     34 H11          0.4510    -1.1340     2.3810 hc         1 MXR       0.037367
     35 H12          1.6540    -2.1160     1.5340 hc         1 MXR       0.037367
     36 H16          1.6900     5.6280    -2.7260 h1         1 MXR       0.158700
     37 H17          4.0810     5.4580    -4.5430 hc         1 MXR       0.052700
     38 H18          3.6270     6.7460    -3.3990 hc         1 MXR       0.052700
     39 H19          3.0880     6.6070    -6.2460 h1         1 MXR       0.021700
     40 H20          2.5470     0.8490    -2.8000 hc         1 MXR       0.062700
     41 H21          0.8800     6.3900    -6.3040 hn         1 MXR       0.335800
     42 H23          0.2530     0.2510    -3.5430 hc         1 MXR       0.044367
     43 H24         -0.3810     0.6510    -1.9410 hc         1 MXR       0.044367
     44 H25          0.6980    -0.7360    -2.1450 hc         1 MXR       0.044367
     45 H26          0.1530     4.8400    -4.3940 h1         1 MXR       0.055700
     46 H27          1.4730     4.3290    -5.4840 h1         1 MXR       0.055700
     47 H28          4.9320    10.7750    -5.2410 h1         1 MXR       0.034367
     48 H29          3.2270    10.9570    -5.6780 h1         1 MXR       0.034367
     49 H30          3.6800    10.6250    -4.0000 h1         1 MXR       0.034367
     50 H31          5.7510     8.9890    -6.1440 h1         1 MXR       0.034367
     51 H32          5.3960     7.6130    -5.0910 h1         1 MXR       0.034367
     52 H33          4.6820     7.6970    -6.7070 h1         1 MXR       0.034367
@<TRIPOS>BOND
     1    26    23 1
     2    12    11 1
     3    25    23 1
     4    13    11 1
     5    23    22 1
     6    11     5 1
     7    22    17 1
     8    22    24 2
     9    17    16 1
    10    17    19 1
    11     5    10 2
    12     5     2 1
    13    10     4 1
    14    16    15 1
    15    19    21 1
    16     2    14 1
    17     2    18 1
    18     6     1 2
    19    14    15 1
    20     1     3 1
    21    15    21 1
    22     4    18 1
    23     4     3 1
    24    18    20 1
    25     3     7 1
    26     7     9 1
    27     7     8 1
    28     1    27 1
    29     2    28 1
    30     3    29 1
    31     4    30 1
    32     7    31 1
    33     8    32 1
    34     9    33 1
    35     9    34 1
    36     9    35 1
    37    15    36 1
    38    16    37 1
    39    16    38 1
    40    17    39 1
    41    18    40 1
    42    19    41 1
    43    20    42 1
    44    20    43 1
    45    20    44 1
    46    21    45 1
    47    21    46 1
    48    25    47 1
    49    25    48 1
    50    25    49 1
    51    26    50 1
    52    26    51 1
    53    26    52 1
@<TRIPOS>SUBSTRUCTURE
     1 MXR         1 TEMP              0 ****  ****    0 ROOT
