@<TRIPOS>MOLECULE
molecule
   45    46     1     0     0
SMALL
bcc


@<TRIPOS>ATOM
      1 C1           0.0000     0.0000     0.0000 cc         1 MXS       0.039600
      2 C2           1.3630     0.0000     0.0000 cd         1 MXS      -0.107000
      3 C3           2.0560     0.0000     1.2340 cd         1 MXS      -0.092300
      4 C4           3.3940    -0.0000     1.5170 cc         1 MXS      -0.133000
      5 C5           3.5120    -0.0020     2.9780 cc         1 MXS      -0.281200
      6 C6           2.2090    -0.0030     3.4750 cd         1 MXS       0.179900
      7 C7          -0.0350    -0.0030     2.3940 cd         1 MXS      -0.045300
      8 C8          -0.7000    -0.0020     1.2300 cc         1 MXS      -0.171000
      9 C9           4.7090    -0.0040     3.7320 c          1 MXS       0.612100
     10 C10          2.4310    -1.1610     5.5080 c3         1 MXS       0.137500
     11 C11          2.8740    -0.7460     6.8880 c          1 MXS       0.879600
     12 C12          1.3790    -2.2660     5.6210 c3         1 MXS      -0.059700
     13 C13          0.1750    -1.7460     6.4080 c3         1 MXS      -0.061100
     14 C14          0.9300    -2.6880     4.2200 c3         1 MXS      -0.061100
     15 C15         -1.6070    -0.9590    -1.4680 c          1 MXS       0.744100
     16 C16         -3.1670    -2.0820    -2.8820 c3         1 MXS       0.160700
     17 N1           1.3450    -0.0020     2.4230 na         1 MXS       0.039700
     18 N2           1.8540    -0.0040     4.8110 nu         1 MXS      -0.794000
     19 O6          -2.2030    -1.0150    -2.6730 os         1 MXS      -0.449900
     20 O1           5.7810     0.0940     3.1710 o          1 MXS      -0.572100
     21 O2           2.7230     0.3960     7.2530 o          1 MXS      -0.833800
     22 O3           3.4350    -1.6460     7.7110 o          1 MXS      -0.833800
     23 O4           3.0410    -4.3310     5.6370 o          1 MXS      -0.575200
     24 O5           0.9390    -4.6880     6.5110 oh         1 MXS      -0.677800
     25 N3          -0.7020     0.0060    -1.2090 ns         1 MXS      -0.466100
     26 O7          -1.8840    -1.7760    -0.6130 o          1 MXS      -0.589000
     27 S1           2.0920    -3.6950     6.4820 s4         1 MXS       0.714700
     28 H2           1.9100     0.0010    -0.9350 ha         1 MXS       0.140000
     29 H4           4.2070     0.0010     0.8020 ha         1 MXS       0.159000
     30 H7          -0.5890    -0.0040     3.3260 h4         1 MXS       0.175000
     31 H8          -1.7840    -0.0020     1.2300 ha         1 MXS       0.153000
     32 H9           4.6660    -0.0440     4.8140 h4         1 MXS       0.028200
     33 H10          3.2840    -1.5300     4.9510 h1         1 MXS       0.063700
     34 H13          0.3980    -1.7730     7.4680 hc         1 MXS       0.033867
     35 H13A        -0.0380    -0.7260     6.1100 hc         1 MXS       0.033867
     36 H13B        -0.6870    -2.3690     6.2040 hc         1 MXS       0.033867
     37 H14          0.4180    -3.6410     4.2760 hc         1 MXS       0.033867
     38 H14A         0.2580    -1.9400     3.8160 hc         1 MXS       0.033867
     39 H14B         1.7960    -2.7800     3.5760 hc         1 MXS       0.033867
     40 H16         -3.5690    -2.0140    -3.8850 h1         1 MXS       0.047367
     41 H16A        -3.9730    -1.9860    -2.1630 h1         1 MXS       0.047367
     42 H16B        -2.6800    -3.0400    -2.7510 h1         1 MXS       0.047367
     43 HN2          1.7290     0.8620     5.2960 hn         1 MXS       0.461800
     44 HO5          1.0690    -5.2990     7.2170 ho         1 MXS       0.448000
     45 HN3         -0.5080     0.7080    -1.8960 hn         1 MXS       0.326500
@<TRIPOS>BOND
     1     1     2 2
     2     1     8 1
     3     1    25 1
     4     2     3 1
     5     3     4 2
     6     3    17 1
     7     4     5 1
     8     5     6 2
     9     5     9 1
    10     6    17 1
    11     6    18 1
    12     7     8 2
    13     7    17 1
    14     9    20 2
    15    10    11 1
    16    10    12 1
    17    10    18 1
    18    11    21 1
    19    11    22 1
    20    12    13 1
    21    12    14 1
    22    12    27 1
    23    15    19 1
    24    15    25 1
    25    15    26 2
    26    16    19 1
    27    23    27 2
    28    24    27 1
    29     2    28 1
    30     4    29 1
    31     7    30 1
    32     8    31 1
    33     9    32 1
    34    10    33 1
    35    13    34 1
    36    13    35 1
    37    13    36 1
    38    14    37 1
    39    14    38 1
    40    14    39 1
    41    16    40 1
    42    16    41 1
    43    16    42 1
    44    18    43 1
    45    24    44 1
    46    25    45 1
@<TRIPOS>SUBSTRUCTURE
     1 MXS         1 TEMP              0 ****  ****    0 ROOT
