@<TRIPOS>MOLECULE
molecule
   40    41     1     0     0
SMALL
bcc


@<TRIPOS>ATOM
      1 N1           0.0000     0.0000     0.0000 n          1 MXT      -0.486400
      2 N2          -3.2240     0.0160    -2.7590 n3         1 MXT      -0.539100
      3 O2          -4.5850     0.0330    -2.2210 oh         1 MXT      -0.424300
      4 O11          2.0420    -0.0010    -0.9890 o          1 MXT      -0.588500
      5 O12         -1.7440    -0.0050     1.4490 o          1 MXT      -0.588500
      6 C14          1.3390     0.0000     0.0000 c          1 MXT       0.705500
      7 C21         -0.7950     0.0010    -1.2350 c3         1 MXT       0.109700
      8 C22         -1.6730     1.2510    -1.2680 c3         1 MXT      -0.122900
      9 C23         -1.7000    -1.2300    -1.2500 c3         1 MXT      -0.122900
     10 C24         -2.5300     1.2660    -2.5310 c3         1 MXT       0.209200
     11 C25         -1.6600     1.6440    -3.7350 c3         1 MXT      -0.084100
     12 C26         -3.5860     2.3810    -2.3630 c3         1 MXT      -0.084100
     13 C27         -2.5560    -1.2450    -2.5140 c3         1 MXT       0.209200
     14 C28         -1.6920    -1.6560    -3.7130 c3         1 MXT      -0.084100
     15 C29         -3.6350    -2.3350    -2.3340 c3         1 MXT      -0.084100
     16 C11          0.5410     0.0010     2.2640 c3         1 MXT      -0.177900
     17 C12          1.8370     0.0000     1.4280 c3         1 MXT      -0.177900
     18 C13         -0.5540    -0.0040     1.2180 c          1 MXT       0.705500
     19 H21         -0.1430    -0.0130    -2.0990 h1         1 MXT       0.089700
     20 H121         2.4180     0.8930     1.6280 hc         1 MXT       0.086450
     21 H122         2.4170    -0.8930     1.6280 hc         1 MXT       0.086450
     22 H221        -2.3190     1.2560    -0.3980 hc         1 MXT       0.066450
     23 H222        -1.0410     2.1310    -1.2550 hc         1 MXT       0.066450
     24 H231        -1.0870    -2.1230    -1.2230 hc         1 MXT       0.066450
     25 H232        -2.3470    -1.2080    -0.3810 hc         1 MXT       0.066450
     26 H251        -2.2370     1.5350    -4.6460 hc         1 MXT       0.043200
     27 H252        -1.3320     2.6720    -3.6360 hc         1 MXT       0.043200
     28 H253        -0.7960     0.9920    -3.7750 hc         1 MXT       0.043200
     29 H261        -3.0880     3.3280    -2.1960 hc         1 MXT       0.043200
     30 H262        -4.2220     2.1520    -1.5160 hc         1 MXT       0.043200
     31 H263        -4.1900     2.4440    -3.2610 hc         1 MXT       0.043200
     32 H281        -2.2660    -1.5450    -4.6250 hc         1 MXT       0.043200
     33 H282        -0.8140    -1.0230    -3.7590 hc         1 MXT       0.043200
     34 H283        -1.3870    -2.6890    -3.6010 hc         1 MXT       0.043200
     35 H291        -4.2670    -2.0820    -1.4910 hc         1 MXT       0.043200
     36 H292        -3.1570    -3.2900    -2.1530 hc         1 MXT       0.043200
     37 H293        -4.2390    -2.3980    -3.2310 hc         1 MXT       0.043200
     38 H111         0.4840    -0.8900     2.8770 hc         1 MXT       0.086450
     39 H112         0.4810     0.8960     2.8710 hc         1 MXT       0.086450
     40 HO21        -5.2040     0.0350    -2.9320 ho         1 MXT       0.407000
@<TRIPOS>BOND
     1     1     6 1
     2     1     7 1
     3     1    18 1
     4     2     3 1
     5     2    10 1
     6     2    13 1
     7     4     6 2
     8     5    18 2
     9     6    17 1
    10     7     8 1
    11     7     9 1
    12     8    10 1
    13     9    13 1
    14    10    11 1
    15    10    12 1
    16    13    14 1
    17    13    15 1
    18    16    17 1
    19    16    18 1
    20     7    19 1
    21    17    20 1
    22    17    21 1
    23     8    22 1
    24     8    23 1
    25     9    24 1
    26     9    25 1
    27    11    26 1
    28    11    27 1
    29    11    28 1
    30    12    29 1
    31    12    30 1
    32    12    31 1
    33    14    32 1
    34    14    33 1
    35    14    34 1
    36    15    35 1
    37    15    36 1
    38    15    37 1
    39    16    38 1
    40    16    39 1
    41     3    40 1
@<TRIPOS>SUBSTRUCTURE
     1 MXT         1 TEMP              0 ****  ****    0 ROOT
