@<TRIPOS>MOLECULE
MXX
   32    33     1     0     0
SMALL
bcc


@<TRIPOS>ATOM
      1 O17          0.0000     0.0000     0.0000 o          1 MXX      -0.699500
      2 C9           1.2190     0.0000     0.0000 c          1 MXX       0.603700
      3 N10          1.8740     0.0000     1.1750 n          1 MXX       0.094000
      4 C16          1.1130     0.0000     2.4260 c3         1 MXX       0.025300
      5 C3           3.2540    -0.0000     1.2170 ca         1 MXX      -0.045400
      6 C4           3.9330    -0.0010     2.4350 ca         1 MXX       0.064100
      7 O12          3.2360    -0.0010     3.6030 os         1 MXX      -0.307900
      8 C13          3.9960    -0.0020     4.8130 c3         1 MXX       0.237700
      9 C5           5.3160    -0.0020     2.4540 ca         1 MXX      -0.121000
     10 C6           6.0400    -0.0010     1.2720 ca         1 MXX      -0.213000
     11 C1           5.3900    -0.0010     0.0520 ca         1 MXX       0.172100
     12 O11          6.1050    -0.0010    -1.1020 os         1 MXX      -0.300900
     13 C14          7.5290    -0.0010    -0.9840 c3         1 MXX       0.237700
     14 C2           3.9870    -0.0000     0.0160 ca         1 MXX      -0.124800
     15 C7           3.2650    -0.0000    -1.2550 cc         1 MXX       0.019600
     16 C15          4.0110    -0.0000    -2.5650 c3         1 MXX       0.047100
     17 C8           1.9070    -0.0060    -1.2300 cd         1 MXX      -0.236200
     18 H16          1.3620     0.8840     3.0000 h1         1 MXX       0.036700
     19 H16A         0.0530     0.0010     2.2030 h1         1 MXX       0.036700
     20 H16B         1.3610    -0.8850     3.0000 h1         1 MXX       0.036700
     21 H13          3.3240    -0.0020     5.6620 h1         1 MXX      -0.001300
     22 H13A         4.6200    -0.8870     4.8460 h1         1 MXX      -0.001300
     23 H13B         4.6210     0.8820     4.8470 h1         1 MXX      -0.001300
     24 H5           5.8380    -0.0020     3.4030 ha         1 MXX       0.119000
     25 H6           7.1230    -0.0020     1.3040 ha         1 MXX       0.123000
     26 H14          7.9730    -0.0010    -1.9720 h1         1 MXX       0.000033
     27 H14A         7.8470     0.8830    -0.4450 h1         1 MXX       0.000033
     28 H14B         7.8470    -0.8860    -0.4460 h1         1 MXX       0.000033
     29 H15          4.6320    -0.8850    -2.6270 hc         1 MXX       0.020033
     30 H15A         3.3020     0.0010    -3.3840 hc         1 MXX       0.020033
     31 H15B         4.6340     0.8840    -2.6250 hc         1 MXX       0.020033
     32 H8           1.3510    -0.0150    -2.1590 ha         1 MXX       0.138000
@<TRIPOS>BOND
     1     1     2 2   
     2     2     3 1   
     3     2    17 1   
     4     3     4 1   
     5     3     5 1   
     6     4    18 1   
     7     4    19 1   
     8     4    20 1   
     9     5     6 ar  
    10     5    14 ar  
    11     6     7 1   
    12     6     9 ar  
    13     7     8 1   
    14     8    21 1   
    15     8    22 1   
    16     8    23 1   
    17     9    10 ar  
    18     9    24 1   
    19    10    11 ar  
    20    10    25 1   
    21    11    12 1   
    22    11    14 ar  
    23    12    13 1   
    24    13    26 1   
    25    13    27 1   
    26    13    28 1   
    27    14    15 1   
    28    15    16 1   
    29    15    17 2   
    30    16    29 1   
    31    16    30 1   
    32    16    31 1   
    33    17    32 1   
@<TRIPOS>SUBSTRUCTURE
     1 MXX         1 TEMP              0 ****  ****    0 ROOT
