@<TRIPOS>MOLECULE
MXZ
   26    26     1     0     0
SMALL
bcc


@<TRIPOS>ATOM
      1 C1          0.0820   -0.0320   -0.0350 c3        1 MXZ      0.309900
      2 C2          1.6140   -0.1050    0.0750 c3        1 MXZ      0.092100
      3 C3          2.0330   -0.0420    1.5520 c3        1 MXZ      0.112100
      4 C4          1.3270   -1.1700    2.3230 c3        1 MXZ      0.122100
      5 C5         -0.1930   -1.0580    2.1200 c3        1 MXZ      0.150100
      6 O1         -0.3700    1.2080    0.4530 oh        1 MXZ     -0.614800
      7 O2          2.2660    0.9830   -0.5650 os        1 MXZ     -0.412600
      8 O3          3.4260   -0.2630    1.6920 oh        1 MXZ     -0.611800
      9 O4          1.7550   -2.4460    1.8800 oh        1 MXZ     -0.592800
     10 O5         -0.5650   -1.0240    0.7370 os        1 MXZ     -0.439600
     11 CM          2.1920    0.9410   -1.9810 c3        1 MXZ      0.115700
     12 C6         -0.9260   -2.2410    2.7210 c3        1 MXZ     -0.088100
     13 H1C1       -0.2670   -0.2220   -1.0910 h2        1 MXZ      0.070700
     14 H2          1.9480   -1.0830   -0.3730 h1        1 MXZ      0.074700
     15 H3          1.7530    0.9610    1.9770 h1        1 MXZ      0.075700
     16 H4          1.5610   -1.0630    3.4200 h1        1 MXZ      0.054700
     17 H5         -0.5260   -0.0910    2.5930 h1        1 MXZ      0.049700
     18 H1         -1.3350    1.1940    0.4140 ho        1 MXZ      0.416000
     19 HA          3.8660    0.3890    1.1300 ho        1 MXZ      0.427000
     20 HB          2.7220   -2.4340    1.9060 ho        1 MXZ      0.420000
     21 HMC1        2.8210    1.8050   -2.3130 h1        1 MXZ      0.037700
     22 HMC2        1.1360    1.0750   -2.3210 h1        1 MXZ      0.037700
     23 HMC3        2.6040   -0.0210   -2.3740 h1        1 MXZ      0.037700
     24 H6C1       -0.7460   -2.2630    3.8220 hc        1 MXZ      0.052033
     25 H6C2       -2.0200   -2.1520    2.5240 hc        1 MXZ      0.052033
     26 H6C3       -0.5520   -3.1910    2.2690 hc        1 MXZ      0.052033
@<TRIPOS>BOND
     1    1    2 1   
     2    1    6 1   
     3    1   10 1   
     4    1   13 1   
     5    2    3 1   
     6    2    7 1   
     7    2   14 1   
     8    3    4 1   
     9    3    8 1   
    10    3   15 1   
    11    4    5 1   
    12    4    9 1   
    13    4   16 1   
    14    5   10 1   
    15    5   12 1   
    16    5   17 1   
    17    6   18 1   
    18    7   11 1   
    19    8   19 1   
    20    9   20 1   
    21   11   21 1   
    22   11   22 1   
    23   11   23 1   
    24   12   24 1   
    25   12   25 1   
    26   12   26 1   
@<TRIPOS>SUBSTRUCTURE
     1 MXZ         1 TEMP              0 ****  ****    0 ROOT
