@<TRIPOS>MOLECULE
molecule
   26    26     1     0     0
SMALL
bcc


@<TRIPOS>ATOM
      1 C1           0.0000     0.0000     0.0000 c3         1 MXZ       0.305900
      2 C2           1.5290     0.0000     0.0000 c3         1 MXZ       0.110100
      3 C3           2.0310     0.0000     1.4480 c3         1 MXZ       0.137100
      4 C4           1.3760    -1.1690     2.1930 c3         1 MXZ       0.104100
      5 C5          -0.1420    -1.0800     2.0270 c3         1 MXZ       0.128100
      6 O1          -0.4750     1.1530     0.6970 oh         1 MXZ      -0.620800
      7 O2           2.0090     1.1650    -0.6720 os         1 MXZ      -0.393600
      8 O3           3.4510    -0.1530     1.4710 oh         1 MXZ      -0.594800
      9 O4           1.8450    -2.4040     1.6520 oh         1 MXZ      -0.583800
     10 O5          -0.4830    -1.1760     0.6460 os         1 MXZ      -0.396600
     11 CM           2.1520     0.8200    -2.0500 c3         1 MXZ       0.112700
     12 C6          -0.8050    -2.2250     2.7960 c3         1 MXZ      -0.087100
     13 H1C1        -0.3580     0.0190    -1.0220 h2         1 MXZ       0.067700
     14 H2           1.8890    -0.8880    -0.5050 h1         1 MXZ       0.086700
     15 H3           1.7540     0.9320     1.9260 h1         1 MXZ       0.061700
     16 H4           1.6270    -1.1110     3.2450 h1         1 MXZ       0.039700
     17 H5          -0.4900    -0.1310     2.4160 h1         1 MXZ       0.067700
     18 H1          -1.2100     1.5190     0.2340 ho         1 MXZ       0.412000
     19 HA           3.8260     0.4800     2.0600 ho         1 MXZ       0.402000
     20 HB           2.4220    -2.8190     2.2710 ho         1 MXZ       0.403000
     21 HMC1         2.9080     0.0510    -2.1530 h1         1 MXZ       0.032700
     22 HMC2         1.2070     0.4500    -2.4290 h1         1 MXZ       0.032700
     23 HMC3         2.4480     1.6960    -2.6130 h1         1 MXZ       0.032700
     24 H6C1        -0.4400    -2.2340     3.8160 hc         1 MXZ       0.046367
     25 H6C2        -1.8790    -2.0840     2.7980 hc         1 MXZ       0.046367
     26 H6C3        -0.5650    -3.1670     2.3190 hc         1 MXZ       0.046367
@<TRIPOS>BOND
     1     1     2 1
     2     1     6 1
     3     1    10 1
     4     1    13 1
     5     2     3 1
     6     2     7 1
     7     2    14 1
     8     3     4 1
     9     3     8 1
    10     3    15 1
    11     4     5 1
    12     4     9 1
    13     4    16 1
    14     5    10 1
    15     5    12 1
    16     5    17 1
    17     6    18 1
    18     7    11 1
    19     8    19 1
    20     9    20 1
    21    11    21 1
    22    11    22 1
    23    11    23 1
    24    12    24 1
    25    12    25 1
    26    12    26 1
@<TRIPOS>SUBSTRUCTURE
     1 MXZ         1 TEMP              0 ****  ****    0 ROOT
