@<TRIPOS>MOLECULE
molecule
   51    52     1     0     0
SMALL
bcc


@<TRIPOS>ATOM
      1 C1           0.0000     0.0000     0.0000 c          1 MY1       0.661100
      2 N2           1.3480     0.0000     0.0000 n          1 MY1      -0.406200
      3 O3          -0.6060     0.0000     1.0510 o          1 MY1      -0.474100
      4 N4           2.0310     0.0290    -1.1830 nz         1 MY1      -0.532600
      5 C5           2.0810    -0.0300     1.2680 c3         1 MY1      -0.032000
      6 C6           2.3330    -1.4610     1.6690 c          1 MY1       0.865600
      7 O7           2.9930    -1.7340     2.8040 o          1 MY1      -0.795300
      8 O8           1.9400    -2.3630     0.9660 o          1 MY1      -0.795300
      9 C9          -0.7540    -0.0020    -1.3050 c3         1 MY1      -0.186400
     10 C10         -2.2560     0.0870    -1.0260 c3         1 MY1       0.103100
     11 O11         -2.6450    -0.9860    -0.1660 oh         1 MY1      -0.545800
     12 C12         -3.0150    -0.0110    -2.3250 c          1 MY1       0.627100
     13 N13         -3.0380     1.0390    -3.1710 n          1 MY1      -0.488800
     14 O14         -3.6030    -1.0320    -2.6080 o          1 MY1      -0.561100
     15 C15         -2.1680     2.1920    -2.9320 c3         1 MY1       0.142800
     16 C16         -3.9360     1.0240    -4.3290 c3         1 MY1       0.142800
     17 C17         -5.2180     1.7350    -3.9790 ca         1 MY1      -0.097300
     18 C18         -5.3520     3.0870    -4.2350 ca         1 MY1      -0.128000
     19 C19         -6.5280     3.7380    -3.9130 ca         1 MY1      -0.129250
     20 C20         -7.5710     3.0370    -3.3370 ca         1 MY1      -0.119000
     21 C21         -7.4390     1.6850    -3.0820 ca         1 MY1      -0.129250
     22 C22         -6.2630     1.0330    -3.4070 ca         1 MY1      -0.128000
     23 C23         -1.3990     2.5090    -4.1890 ca         1 MY1      -0.097300
     24 C24         -2.0000     3.2310    -5.2040 ca         1 MY1      -0.128000
     25 C25         -1.2950     3.5220    -6.3560 ca         1 MY1      -0.129250
     26 C26          0.0120     3.0910    -6.4950 ca         1 MY1      -0.119000
     27 C27          0.6130     2.3700    -5.4810 ca         1 MY1      -0.129250
     28 C28         -0.0910     2.0830    -4.3260 ca         1 MY1      -0.128000
     29 H4N1         1.6800    -0.6880    -1.7880 hn         1 MY1       0.449133
     30 H4N2         1.9080     0.9220    -1.6170 hn         1 MY1       0.449133
     31 H5C1         1.4950     0.4620     2.0350 h1         1 MY1       0.080200
     32 H5C2         3.0270     0.4840     1.1500 h1         1 MY1       0.080200
     33 H9C1        -0.5400    -0.9160    -1.8440 hc         1 MY1       0.074200
     34 H9C2        -0.4470     0.8490    -1.9010 hc         1 MY1       0.074200
     35 H10         -2.4790     1.0320    -0.5470 h1         1 MY1       0.056700
     36 H11         -3.3830    -0.7190     0.3560 ho         1 MY1       0.422000
     37 H151        -1.4750     1.9620    -2.1330 h1         1 MY1       0.065700
     38 H152        -2.7710     3.0480    -2.6530 h1         1 MY1       0.065700
     39 H161        -4.1550    -0.0010    -4.6030 h1         1 MY1       0.065700
     40 H162        -3.4600     1.5270    -5.1620 h1         1 MY1       0.065700
     41 H18         -4.5350     3.6360    -4.6860 ha         1 MY1       0.133500
     42 H19         -6.6330     4.7980    -4.1130 ha         1 MY1       0.133250
     43 H20         -8.4920     3.5480    -3.0840 ha         1 MY1       0.135500
     44 H21         -8.2570     1.1360    -2.6330 ha         1 MY1       0.133250
     45 H22         -6.1590    -0.0270    -3.2080 ha         1 MY1       0.133500
     46 H24         -3.0010     3.6230    -5.0690 ha         1 MY1       0.133500
     47 H25         -1.7610     4.0990    -7.1460 ha         1 MY1       0.133250
     48 H26          0.5650     3.3190    -7.3980 ha         1 MY1       0.135500
     49 H27          1.6310     2.0180    -5.5960 ha         1 MY1       0.133250
     50 H28          0.7930     1.9150    -3.7230 ha         1 MY1       0.133500
     51 H43          3.0010    -0.1490    -1.0130 hn         1 MY1       0.449133
@<TRIPOS>BOND
     1     1     2 1
     2     1     3 2
     3     1     9 1
     4     2     4 1
     5     2     5 1
     6     4    29 1
     7     4    30 1
     8     5     6 1
     9     5    31 1
    10     5    32 1
    11     6     7 1
    12     6     8 1
    13     9    10 1
    14     9    33 1
    15     9    34 1
    16    10    11 1
    17    10    12 1
    18    10    35 1
    19    11    36 1
    20    12    13 1
    21    12    14 2
    22    13    15 1
    23    13    16 1
    24    15    23 1
    25    15    37 1
    26    15    38 1
    27    16    17 1
    28    16    39 1
    29    16    40 1
    30    17    18 ar
    31    17    22 ar
    32    18    19 ar
    33    18    41 1
    34    19    20 ar
    35    19    42 1
    36    20    21 ar
    37    20    43 1
    38    21    22 ar
    39    21    44 1
    40    22    45 1
    41    23    24 ar
    42    23    28 ar
    43    24    25 ar
    44    24    46 1
    45    25    26 ar
    46    25    47 1
    47    26    27 ar
    48    26    48 1
    49    27    28 ar
    50    27    49 1
    51    28    50 1
    52    51     4 1
@<TRIPOS>SUBSTRUCTURE
     1 MY1         1 TEMP              0 ****  ****    0 ROOT
