@<TRIPOS>MOLECULE
MY1
   51    52     1     0     0
SMALL
bcc


@<TRIPOS>ATOM
      1 C1           0.0000     0.0000     0.0000 c          1 MY1       0.605100
      2 N2           1.3480     0.0000     0.0000 n          1 MY1      -0.311200
      3 O3          -0.6060     0.0000     1.0510 o          1 MY1      -0.491100
      4 N4           2.0310     0.0290    -1.1830 nz         1 MY1       0.275400
      5 C5           2.0810    -0.0300     1.2680 c3         1 MY1      -0.050000
      6 C6           2.3330    -1.4610     1.6690 c          1 MY1       0.949600
      7 O7           2.9930    -1.7340     2.8040 o          1 MY1      -0.845300
      8 O8           1.9400    -2.3630     0.9660 o          1 MY1      -0.845300
      9 C9          -0.7540    -0.0020    -1.3050 c3         1 MY1      -0.149400
     10 C10         -2.2560     0.0870    -1.0260 c3         1 MY1       0.147100
     11 O11         -2.6450    -0.9860    -0.1660 oh         1 MY1      -0.528800
     12 C12         -3.0150    -0.0110    -2.3250 c          1 MY1       0.544100
     13 N13         -3.0380     1.0390    -3.1710 n          1 MY1      -0.151800
     14 O14         -3.6030    -1.0320    -2.6080 o          1 MY1      -0.595100
     15 C15         -2.1680     2.1920    -2.9320 c3         1 MY1       0.085300
     16 C16         -3.9360     1.0240    -4.3290 c3         1 MY1       0.085300
     17 C17         -5.2180     1.7350    -3.9790 ca         1 MY1      -0.100300
     18 C18         -5.3520     3.0870    -4.2350 ca         1 MY1      -0.109000
     19 C19         -6.5280     3.7380    -3.9130 ca         1 MY1      -0.099000
     20 C20         -7.5710     3.0370    -3.3370 ca         1 MY1      -0.091000
     21 C21         -7.4390     1.6850    -3.0820 ca         1 MY1      -0.099000
     22 C22         -6.2630     1.0330    -3.4070 ca         1 MY1      -0.109000
     23 C23         -1.3990     2.5090    -4.1890 ca         1 MY1      -0.100300
     24 C24         -2.0000     3.2310    -5.2040 ca         1 MY1      -0.109000
     25 C25         -1.2950     3.5220    -6.3560 ca         1 MY1      -0.099000
     26 C26          0.0120     3.0910    -6.4950 ca         1 MY1      -0.091000
     27 C27          0.6130     2.3700    -5.4810 ca         1 MY1      -0.099000
     28 C28         -0.0910     2.0830    -4.3260 ca         1 MY1      -0.109000
     29 H4N1         1.6800    -0.6880    -1.7880 hn         1 MY1       0.207133
     30 H4N2         1.9080     0.9220    -1.6170 hn         1 MY1       0.207133
     31 H5C1         1.4950     0.4620     2.0350 h1         1 MY1       0.046700
     32 H5C2         3.0270     0.4840     1.1500 h1         1 MY1       0.046700
     33 H9C1        -0.5400    -0.9160    -1.8440 hc         1 MY1       0.047200
     34 H9C2        -0.4470     0.8490    -1.9010 hc         1 MY1       0.047200
     35 H10         -2.4790     1.0320    -0.5470 h1         1 MY1       0.019700
     36 H11         -3.3830    -0.7190     0.3560 ho         1 MY1       0.405000
     37 H151        -1.4750     1.9620    -2.1330 h1         1 MY1       0.040450
     38 H152        -2.7710     3.0480    -2.6530 h1         1 MY1       0.040450
     39 H161        -4.1550    -0.0010    -4.6030 h1         1 MY1       0.040450
     40 H162        -3.4600     1.5270    -5.1620 h1         1 MY1       0.040450
     41 H18         -4.5350     3.6360    -4.6860 ha         1 MY1       0.114000
     42 H19         -6.6330     4.7980    -4.1130 ha         1 MY1       0.105750
     43 H20         -8.4920     3.5480    -3.0840 ha         1 MY1       0.107000
     44 H21         -8.2570     1.1360    -2.6330 ha         1 MY1       0.105750
     45 H22         -6.1590    -0.0270    -3.2080 ha         1 MY1       0.114000
     46 H24         -3.0010     3.6230    -5.0690 ha         1 MY1       0.114000
     47 H25         -1.7610     4.0990    -7.1460 ha         1 MY1       0.105750
     48 H26          0.5650     3.3190    -7.3980 ha         1 MY1       0.107000
     49 H27          1.6310     2.0180    -5.5960 ha         1 MY1       0.105750
     50 H28          0.7930     1.9150    -3.7230 ha         1 MY1       0.114000
     51 H43          3.0010    -0.1490    -1.0130 hn         1 MY1       0.207133
@<TRIPOS>BOND
     1     1     2 1   
     2     1     3 2   
     3     1     9 1   
     4     2     4 1   
     5     2     5 1   
     6     4    29 1   
     7     4    30 1   
     8     4    51 1   
     9     5     6 1   
    10     5    31 1   
    11     5    32 1   
    12     6     7 1   
    13     6     8 1   
    14     9    10 1   
    15     9    33 1   
    16     9    34 1   
    17    10    11 1   
    18    10    12 1   
    19    10    35 1   
    20    11    36 1   
    21    12    13 1   
    22    12    14 2   
    23    13    15 1   
    24    13    16 1   
    25    15    23 1   
    26    15    37 1   
    27    15    38 1   
    28    16    17 1   
    29    16    39 1   
    30    16    40 1   
    31    17    18 ar  
    32    17    22 ar  
    33    18    19 ar  
    34    18    41 1   
    35    19    20 ar  
    36    19    42 1   
    37    20    21 ar  
    38    20    43 1   
    39    21    22 ar  
    40    21    44 1   
    41    22    45 1   
    42    23    24 ar  
    43    23    28 ar  
    44    24    25 ar  
    45    24    46 1   
    46    25    26 ar  
    47    25    47 1   
    48    26    27 ar  
    49    26    48 1   
    50    27    28 ar  
    51    27    49 1   
    52    28    50 1   
@<TRIPOS>SUBSTRUCTURE
     1 MY1         1 TEMP              0 ****  ****    0 ROOT
