@<TRIPOS>MOLECULE
molecule
   37    37     1     0     0
SMALL
bcc


@<TRIPOS>ATOM
      1 C2           0.0000     0.0000     0.0000 c3         1 MY2      -0.173400
      2 C3           1.5300     0.0000     0.0000 c3         1 MY2       0.135100
      3 C4           2.0320     0.0000     1.4210 c          1 MY2       0.589100
      4 O5           2.6500    -0.9480     1.8450 o          1 MY2      -0.509000
      5 O6           1.7920     1.0550     2.2180 os         1 MY2      -0.450900
      6 C7          -0.5020     0.1230    -1.4160 c          1 MY2       0.664100
      7 O8           0.2870     0.2030    -2.3340 o          1 MY2      -0.480100
      8 N9          -1.8270     0.1450    -1.6620 n          1 MY2      -0.404200
      9 C10         -2.3140     0.2640    -3.0380 c3         1 MY2      -0.031000
     10 C12          0.6710     2.4290     4.9290 ca         1 MY2      -0.105000
     11 C13          0.3050     3.6100     5.5460 ca         1 MY2      -0.130500
     12 C14          1.1450     4.7070     5.4940 ca         1 MY2      -0.113000
     13 C15          2.3520     4.6210     4.8240 ca         1 MY2      -0.130500
     14 C16          2.7200     3.4380     4.2110 ca         1 MY2      -0.105000
     15 C17          1.8770     2.3430     4.2590 ca         1 MY2      -0.104300
     16 C18         -2.4810    -1.1100    -3.6330 c          1 MY2       0.866600
     17 C9           2.2760     1.0550     3.5870 c3         1 MY2       0.204700
     18 O19         -2.9210    -1.2470    -4.8930 o          1 MY2      -0.794300
     19 N16         -2.7140     0.0550    -0.6280 nz         1 MY2      -0.531600
     20 O20         -2.2210    -2.0890    -2.9750 o          1 MY2      -0.794300
     21 O57          2.0070    -1.1680    -0.6730 oh         1 MY2      -0.550800
     22 H2C1        -0.3610    -0.9260     0.4320 hc         1 MY2       0.073700
     23 H2C2        -0.3610     0.8370     0.5850 hc         1 MY2       0.073700
     24 H3           1.8910     0.8840    -0.5110 h1         1 MY2       0.078700
     25 H101        -1.6010     0.8290    -3.6260 h1         1 MY2       0.080700
     26 H102        -3.2690     0.7770    -3.0390 h1         1 MY2       0.080700
     27 H15          3.0120     5.4800     4.7850 ha         1 MY2       0.134500
     28 H16          3.6650     3.3710     3.6860 ha         1 MY2       0.132500
     29 H9C1         3.3550     0.9660     3.5880 h1         1 MY2       0.058200
     30 H9C2         1.8430     0.2190     4.1230 h1         1 MY2       0.058200
     31 H161        -2.6140     0.8520    -0.0320 hn         1 MY2       0.449800
     32 H162        -3.6470     0.0240    -0.9910 hn         1 MY2       0.449800
     33 H57          2.8750    -1.0070    -1.0040 ho         1 MY2       0.428000
     34 H12          0.0110     1.5700     4.9690 ha         1 MY2       0.132500
     35 H13         -0.6400     3.6770     6.0710 ha         1 MY2       0.134500
     36 H163        -2.5290    -0.7750    -0.1010 hn         1 MY2       0.449800
     37 H14          0.8570     5.6330     5.9760 ha         1 MY2       0.135000
@<TRIPOS>BOND
     1     1     2 1
     2     1     6 1
     3     1    22 1
     4     1    23 1
     5     2     3 1
     6     2    21 1
     7     2    24 1
     8     3     4 2
     9     3     5 1
    10     5    17 1
    11     6     7 2
    12     6     8 1
    13     8     9 1
    14     8    19 1
    15     9    16 1
    16     9    25 1
    17     9    26 1
    18    10    11 ar
    19    10    15 ar
    20    10    34 1
    21    11    12 ar
    22    11    35 1
    23    12    13 ar
    24    12    37 1
    25    13    14 ar
    26    13    27 1
    27    14    15 ar
    28    14    28 1
    29    15    17 1
    30    16    18 1
    31    16    20 1
    32    17    29 1
    33    17    30 1
    34    19    31 1
    35    19    32 1
    36    21    33 1
    37    36    19 1
@<TRIPOS>SUBSTRUCTURE
     1 MY2         1 TEMP              0 ****  ****    0 ROOT
