@<TRIPOS>MOLECULE
molecule
   38    38     1     0     0
SMALL
bcc


@<TRIPOS>ATOM
      1 C1           0.0000     0.0000     0.0000 ca         1 MY3      -0.123300
      2 C2           1.3820     0.0000     0.0000 ca         1 MY3      -0.114500
      3 N20          1.4900    -5.4670    -4.2750 nz         1 MY3      -0.531600
      4 C3           2.0730     0.0000     1.1970 ca         1 MY3      -0.129500
      5 C4           1.3820     0.0000     2.3950 ca         1 MY3      -0.116000
      6 C5          -0.0010     0.0000     2.3940 ca         1 MY3      -0.129500
      7 C6          -0.6910     0.0000     1.1970 ca         1 MY3      -0.114500
      8 C7          -0.7540     0.0070    -1.3050 c3         1 MY3       0.160300
      9 C9          -1.9120    -3.0310    -3.3260 c3         1 MY3       0.102100
     10 C10         -0.5780    -3.7140    -3.6320 c3         1 MY3      -0.174400
     11 C11         -0.8190    -5.1650    -3.9560 c          1 MY3       0.662100
     12 C15         -1.6610    -1.6120    -2.8830 c          1 MY3       0.613100
     13 C12         -0.0150    -7.3800    -4.5750 c3         1 MY3      -0.032000
     14 C13         -0.2410    -7.5340    -6.0570 c          1 MY3       0.865600
     15 N2           0.2200    -5.9690    -4.2610 n          1 MY3      -0.406200
     16 N3          -0.9980    -1.3720    -1.7340 ns         1 MY3      -0.592900
     17 O4          -2.0550    -0.6870    -3.5610 o          1 MY3      -0.565100
     18 O6          -1.9470    -5.6110    -3.9420 o          1 MY3      -0.477100
     19 O7          -0.4780    -8.7490    -6.5770 o          1 MY3      -0.794300
     20 O8          -0.2110    -6.5640    -6.7770 o          1 MY3      -0.794300
     21 O57         -2.7260    -3.0260    -4.5000 oh         1 MY3      -0.550800
     22 H2           1.9240    -0.0000    -0.9380 ha         1 MY3       0.133500
     23 H201         2.1250    -6.1750    -4.5870 hn         1 MY3       0.449467
     24 H202         1.5320    -4.6840    -4.8970 hn         1 MY3       0.449467
     25 H3           3.1570    -0.0000     1.1970 ha         1 MY3       0.135000
     26 H4           1.9240     0.0000     3.3330 ha         1 MY3       0.135000
     27 H5          -0.5430     0.0000     3.3320 ha         1 MY3       0.135000
     28 H6          -1.7740     0.0000     1.1970 ha         1 MY3       0.133500
     29 H7C1        -1.7000     0.5170    -1.1730 h1         1 MY3       0.063700
     30 H7C2        -0.1690     0.5210    -2.0580 h1         1 MY3       0.063700
     31 H9          -2.4210    -3.5710    -2.5360 h1         1 MY3       0.062700
     32 H101        -0.1100    -3.2280    -4.4800 hc         1 MY3       0.066700
     33 H102         0.0730    -3.6400    -2.7690 hc         1 MY3       0.066700
     34 H121        -0.8890    -7.7290    -4.0380 h1         1 MY3       0.080700
     35 H122         0.8480    -7.9640    -4.2790 h1         1 MY3       0.080700
     36 HA          -0.7110    -2.1350    -1.1530 hn         1 MY3       0.309500
     37 H57         -3.6340    -2.9680    -4.2530 ho         1 MY3       0.426000
     38 H203         1.7460    -5.1800    -3.3510 hn         1 MY3       0.449467
@<TRIPOS>BOND
     1     1     2 ar
     2     1     7 ar
     3     1     8 1
     4     2     4 ar
     5     2    22 1
     6     3    15 1
     7     3    23 1
     8     3    24 1
     9     4     5 ar
    10     4    25 1
    11     5     6 ar
    12     5    26 1
    13     6     7 ar
    14     6    27 1
    15     7    28 1
    16     8    16 1
    17     8    29 1
    18     8    30 1
    19     9    10 1
    20     9    12 1
    21     9    21 1
    22     9    31 1
    23    10    11 1
    24    10    32 1
    25    10    33 1
    26    11    15 1
    27    11    18 2
    28    12    16 1
    29    12    17 2
    30    13    14 1
    31    13    15 1
    32    13    34 1
    33    13    35 1
    34    14    19 1
    35    14    20 1
    36    16    36 1
    37    21    37 1
    38    38     3 1
@<TRIPOS>SUBSTRUCTURE
     1 MY3         1 TEMP              0 ****  ****    0 ROOT
