@<TRIPOS>MOLECULE
MY4
   41    41     1     0     0
SMALL
bcc


@<TRIPOS>ATOM
      1 C1           0.0000     0.0000     0.0000 ca         1 MY4      -0.095000
      2 C2           1.3820     0.0000     0.0000 ca         1 MY4      -0.094000
      3 N20          2.2550     0.9640    10.7430 nz         1 MY4       0.279400
      4 C3           2.0740     0.0000     1.1980 ca         1 MY4      -0.094000
      5 C4           1.3820     0.0020     2.3950 ca         1 MY4      -0.098300
      6 C5          -0.0010    -0.0030     2.3940 ca         1 MY4      -0.094000
      7 C6          -0.6910     0.0010     1.1970 ca         1 MY4      -0.094000
      8 C9           4.2120     2.6130     7.2980 c3         1 MY4       0.148100
      9 C10          3.3350     2.0050     8.3940 c3         1 MY4      -0.119400
     10 C11          4.1280     1.8910     9.6690 c          1 MY4       0.604100
     11 C15          3.4600     2.6120     5.9930 c          1 MY4       0.521100
     12 C12          4.3280     1.2710    12.0170 c3         1 MY4      -0.049000
     13 C13          4.1660     2.5340    12.8230 c          1 MY4       0.949600
     14 C14          2.3900     1.4450     4.1410 c3         1 MY4       0.051000
     15 N2           3.5550     1.3800    10.7770 n          1 MY4      -0.309200
     16 N3           3.1220     1.4450     5.4100 ns         1 MY4      -0.214900
     17 O4           3.1570     3.6620     5.4670 o          1 MY4      -0.597100
     18 O6           5.2840     2.2620     9.7000 o          1 MY4      -0.494100
     19 O7           4.7880     2.6600    14.0060 o          1 MY4      -0.844300
     20 O8           3.4770     3.4330    12.4040 o          1 MY4      -0.844300
     21 O14          4.5540     3.9550     7.6510 oh         1 MY4      -0.535800
     22 C16          2.1340     0.0020     3.7000 c3         1 MY4       0.022900
     23 H1          -0.5420     0.0020    -0.9380 ha         1 MY4       0.105000
     24 H2           1.9240    -0.0010    -0.9380 ha         1 MY4       0.105000
     25 H201         1.9740     0.6720    11.6580 hn         1 MY4       0.206467
     26 H202         1.6710     1.7180    10.4400 hn         1 MY4       0.206467
     27 H3           3.1570     0.0020     1.1980 ha         1 MY4       0.104000
     28 H5          -0.5440    -0.0020     3.3320 ha         1 MY4       0.104000
     29 H6          -1.7740    -0.0010     1.1960 ha         1 MY4       0.105000
     30 H9           5.1170     2.0260     7.1930 h1         1 MY4       0.024700
     31 H101         3.0040     1.0200     8.0860 hc         1 MY4       0.032700
     32 H102         2.4730     2.6400     8.5600 hc         1 MY4       0.032700
     33 H121         5.3740     1.1270    11.7790 h1         1 MY4       0.047200
     34 H122         3.9680     0.4270    12.5930 h1         1 MY4       0.047200
     35 H141         1.4440     1.9570     4.2700 h1         1 MY4       0.034200
     36 H142         2.9770     1.9550     3.3860 h1         1 MY4       0.034200
     37 HA           3.4000     0.5790     5.8270 hn         1 MY4       0.166500
     38 H14          5.3410     4.2080     7.1980 ho         1 MY4       0.410000
     39 H161         1.5480    -0.5070     4.4550 hc         1 MY4       0.015700
     40 H162         3.0800    -0.5090     3.5710 hc         1 MY4       0.015700
     41 H203         2.1680     0.1910    10.1130 hn         1 MY4       0.206467
@<TRIPOS>BOND
     1     1     2 ar  
     2     1     7 ar  
     3     1    23 1   
     4     2     4 ar  
     5     2    24 1   
     6     3    15 1   
     7     3    25 1   
     8     3    26 1   
     9     3    41 1   
    10     4     5 ar  
    11     4    27 1   
    12     5     6 ar  
    13     5    22 1   
    14     6     7 ar  
    15     6    28 1   
    16     7    29 1   
    17     8     9 1   
    18     8    11 1   
    19     8    21 1   
    20     8    30 1   
    21     9    10 1   
    22     9    31 1   
    23     9    32 1   
    24    10    15 1   
    25    10    18 2   
    26    11    16 1   
    27    11    17 2   
    28    12    13 1   
    29    12    15 1   
    30    12    33 1   
    31    12    34 1   
    32    13    19 1   
    33    13    20 1   
    34    14    16 1   
    35    14    22 1   
    36    14    35 1   
    37    14    36 1   
    38    16    37 1   
    39    21    38 1   
    40    22    39 1   
    41    22    40 1   
@<TRIPOS>SUBSTRUCTURE
     1 MY4         1 TEMP              0 ****  ****    0 ROOT
