@<TRIPOS>MOLECULE
MY5
   48    48     1     0     0
SMALL
bcc


@<TRIPOS>ATOM
      1 N1           0.0000     0.0000     0.0000 n          1 MY5      -0.308200
      2 N2           1.3650     0.0000     0.0000 nz         1 MY5       0.278400
      3 C3          -0.7320     0.0000     1.2690 c3         1 MY5      -0.049000
      4 C4          -0.6740     0.0050    -1.1670 c          1 MY5       0.607100
      5 O5          -1.8880     0.0040    -1.1660 o          1 MY5      -0.501100
      6 C6          -0.9830    -1.4200     1.7050 c          1 MY5       0.949600
      7 O7          -1.6430    -1.6650     2.8480 o          1 MY5      -0.846300
      8 O8          -0.5910    -2.3390     1.0250 o          1 MY5      -0.846300
      9 C9           0.0790     0.0110    -2.4720 c3         1 MY5      -0.124400
     10 C10         -0.9160     0.0150    -3.6350 c3         1 MY5       0.152100
     11 C11         -0.1670     0.1450    -4.9360 c          1 MY5       0.524100
     12 O12         -0.1860    -0.7640    -5.7400 o          1 MY5      -0.611100
     13 N13          0.5240     1.2690    -5.2060 ns         1 MY5      -0.184900
     14 C14          1.2530     1.3950    -6.4710 c3         1 MY5      -0.053300
     15 C15          0.3010     1.8940    -7.5610 c3         1 MY5      -0.010100
     16 C16          2.3830     2.3770    -6.3050 c          1 MY5       0.565100
     17 O17          2.5630     2.9200    -5.2340 o          1 MY5      -0.676100
     18 N18          3.1950     2.6550    -7.3440 ns         1 MY5      -0.172900
     19 C19          4.2930     3.6100    -7.1820 c3         1 MY5       0.111300
     20 C20          6.4170     3.9780   -10.8700 ca         1 MY5      -0.086000
     21 C21          5.3470     4.8100   -10.6030 ca         1 MY5      -0.099000
     22 C22          4.6590     4.6910    -9.4100 ca         1 MY5      -0.082500
     23 C23          5.0430     3.7400    -8.4830 ca         1 MY5      -0.136300
     24 C24          6.1130     2.9060    -8.7510 ca         1 MY5      -0.082500
     25 C25          6.8000     3.0250    -9.9440 ca         1 MY5      -0.099000
     26 O28         -1.6580    -1.2060    -3.6320 oh         1 MY5      -0.536800
     27 H2N1         1.6990    -0.7750    -0.5380 hn         1 MY5       0.207467
     28 H2N2         1.6990    -0.0790     0.9400 hn         1 MY5       0.207467
     29 H3C1        -1.6790     0.5110     1.1400 h1         1 MY5       0.047700
     30 H3C2        -0.1460     0.5110     2.0240 h1         1 MY5       0.047700
     31 H9C1         0.7020    -0.8730    -2.5330 hc         1 MY5       0.037200
     32 H9C2         0.7010     0.8960    -2.5250 hc         1 MY5       0.037200
     33 H10         -1.5970     0.8510    -3.5250 h1         1 MY5       0.025700
     34 H13          0.5090     2.0330    -4.5600 hn         1 MY5       0.191500
     35 H14          1.6530     0.4290    -6.7550 h1         1 MY5       0.068700
     36 H151         0.1200     2.9530    -7.4250 hc         1 MY5       0.017367
     37 H152         0.7460     1.7250    -8.5340 hc         1 MY5       0.017367
     38 H153        -0.6370     1.3560    -7.4950 hc         1 MY5       0.017367
     39 H18          3.0650     2.1850    -8.2190 hn         1 MY5       0.184500
     40 H191         4.9680     3.2570    -6.4110 h1         1 MY5       0.029700
     41 H192         3.8930     4.5760    -6.8980 h1         1 MY5       0.029700
     42 H24          6.4130     2.1600    -8.0250 ha         1 MY5       0.107500
     43 H25          7.6390     2.3730   -10.1540 ha         1 MY5       0.107000
     44 H28         -2.5140    -1.0560    -3.9970 ho         1 MY5       0.408000
     45 H20          6.9550     4.0710   -11.8060 ha         1 MY5       0.106000
     46 H21          5.0470     5.5560   -11.3290 ha         1 MY5       0.107000
     47 H23          1.6990     0.8550    -0.3990 hn         1 MY5       0.207467
     48 H22          3.8210     5.3440    -9.2010 ha         1 MY5       0.107500
@<TRIPOS>BOND
     1     1     2 1   
     2     1     3 1   
     3     1     4 1   
     4     2    27 1   
     5     2    28 1   
     6     2    47 1   
     7     3     6 1   
     8     3    29 1   
     9     3    30 1   
    10     4     5 2   
    11     4     9 1   
    12     6     7 1   
    13     6     8 1   
    14     9    10 1   
    15     9    31 1   
    16     9    32 1   
    17    10    11 1   
    18    10    26 1   
    19    10    33 1   
    20    11    12 2   
    21    11    13 1   
    22    13    14 1   
    23    13    34 1   
    24    14    15 1   
    25    14    16 1   
    26    14    35 1   
    27    15    36 1   
    28    15    37 1   
    29    15    38 1   
    30    16    17 2   
    31    16    18 1   
    32    18    19 1   
    33    18    39 1   
    34    19    23 1   
    35    19    40 1   
    36    19    41 1   
    37    20    21 ar  
    38    20    25 ar  
    39    20    45 1   
    40    21    22 ar  
    41    21    46 1   
    42    22    23 ar  
    43    22    48 1   
    44    23    24 ar  
    45    24    25 ar  
    46    24    42 1   
    47    25    43 1   
    48    26    44 1   
@<TRIPOS>SUBSTRUCTURE
     1 MY5         1 TEMP              0 ****  ****    0 ROOT
