@<TRIPOS>MOLECULE
molecule
   20    21     1     0     0
SMALL
bcc


@<TRIPOS>ATOM
      1 C1           0.0000     0.0000     0.0000 c3         1 MY6       0.020600
      2 N2           3.4830     0.0000     0.8750 nc         1 MY6      -0.640000
      3 C3           2.5140     0.0000     0.0000 cd         1 MY6       0.491400
      4 N4           1.3220     0.0000     0.6320 na         1 MY6      -0.122900
      5 C5           1.5830     0.0000     1.9900 cd         1 MY6      -0.294200
      6 C6           0.7890     0.0000     3.1490 c          1 MY6       0.741100
      7 O7          -0.4280     0.0000     3.0730 o          1 MY6      -0.572500
      8 N8           1.4070    -0.0000     4.3510 ns         1 MY6      -0.466400
      9 C9           2.7690    -0.0000     4.4240 cd         1 MY6       0.443800
     10 N10          3.3690    -0.0000     5.6580 nz         1 MY6      -0.727600
     11 N11          3.5210    -0.0000     3.3490 nc         1 MY6      -0.581700
     12 C12          2.9750     0.0000     2.1180 cc         1 MY6       0.567300
     13 H1          -0.5460    -0.8850     0.3050 h1         1 MY6       0.082367
     14 H1A         -0.5460     0.8840     0.3050 h1         1 MY6       0.082367
     15 H1B          0.1150     0.0000    -1.0770 h1         1 MY6       0.082367
     16 HN8          0.8630    -0.0000     5.1910 hn         1 MY6       0.351500
     17 HN10         3.0910     0.8170     6.1650 hn         1 MY6       0.479133
     18 HN1A         4.3640     0.0000     5.5460 hn         1 MY6       0.479133
     19 H103         3.0910    -0.8170     6.1650 hn         1 MY6       0.479133
     20 H3           2.6470    -0.0000    -1.0750 h5         1 MY6       0.104100
@<TRIPOS>BOND
     1     4     1 1
     2     1    13 1
     3     1    14 1
     4     1    15 1
     5     3     2 2
     6     2    12 1
     7     3     4 1
     8     3    20 1
     9     4     5 1
    10    12     5 2
    11     5     6 1
    12     6     8 1
    13     6     7 2
    14     9     8 1
    15     8    16 1
    16    11     9 2
    17     9    10 1
    18    10    17 1
    19    10    18 1
    20    12    11 1
    21    19    10 1
@<TRIPOS>SUBSTRUCTURE
     1 MY6         1 TEMP              0 ****  ****    0 ROOT
