@<TRIPOS>MOLECULE
MYC
   33    35     1     0     0
SMALL
bcc


@<TRIPOS>ATOM
      1 C1         -0.0460   -0.1520    0.0640 ca        1 MYC     -0.353000
      2 C2          1.3370    0.0520    0.0010 ca        1 MYC      0.254100
      3 C3          2.1330    0.0700    1.1720 ca        1 MYC     -0.282600
      4 C4          1.4810   -0.1260    2.4050 ca        1 MYC      0.220100
      5 C5          0.0970   -0.3340    2.5030 ca        1 MYC     -0.234000
      6 C6         -0.6490   -0.3430    1.3180 ca        1 MYC      0.225100
      7 C9          3.5730    0.2790    1.1400 c         1 MYC      0.583900
      8 C10         4.2140    0.2700    2.4730 cc        1 MYC     -0.060100
      9 C11         3.5190    0.0670    3.6260 cd        1 MYC      0.130900
     10 C14         4.0390    0.0140    4.9910 ca        1 MYC     -0.015800
     11 C15         5.2060    0.7130    5.3210 ca        1 MYC     -0.148000
     12 C16         5.7020    0.6460    6.6260 ca        1 MYC      0.100600
     13 C17         5.0400   -0.1080    7.6120 ca        1 MYC      0.037100
     14 C18         3.8620   -0.8000    7.2670 ca        1 MYC      0.100600
     15 C19         3.3620   -0.7390    5.9600 ca        1 MYC     -0.148000
     16 O12         2.1380   -0.1300    3.6170 os        1 MYC     -0.208200
     17 O13         4.2600    0.4490    0.1230 o         1 MYC     -0.537100
     18 O23         3.1590   -1.5540    8.1740 oh        1 MYC     -0.503100
     19 O24         5.4730   -0.2120    8.9150 oh        1 MYC     -0.511100
     20 O25         6.8450    1.3030    7.0340 oh        1 MYC     -0.503100
     21 O27         5.5740    0.4760    2.5270 oh        1 MYC     -0.494100
     22 O29        -1.9970   -0.5490    1.4540 oh        1 MYC     -0.482100
     23 O30         1.9830    0.2450   -1.1860 oh        1 MYC     -0.451100
     24 H1         -0.6500   -0.1640   -0.8520 ha        1 MYC      0.145000
     25 H5         -0.3850   -0.4830    3.4780 ha        1 MYC      0.178000
     26 H15         5.7370    1.3070    4.5620 ha        1 MYC      0.166000
     27 H19         2.4390   -1.2830    5.7110 ha        1 MYC      0.166000
     28 HO3         3.6210   -1.5070    9.0260 ho        1 MYC      0.438000
     29 HO4         6.2980    0.2910    8.9930 ho        1 MYC      0.449000
     30 HO5         7.2340    1.7290    6.2560 ho        1 MYC      0.438000
     31 HO7         5.8980    0.4900    1.6080 ho        1 MYC      0.446000
     32 HO9        -2.3990   -0.5340    0.5710 ho        1 MYC      0.428000
     33 HO0         1.3270    0.2080   -1.9010 ho        1 MYC      0.425000
@<TRIPOS>BOND
     1    1    2 ar  
     2    1    6 ar  
     3    1   24 1   
     4    2    3 ar  
     5    2   23 1   
     6    3    4 ar  
     7    3    7 1   
     8    4    5 ar  
     9    4   16 1   
    10    5    6 ar  
    11    5   25 1   
    12    6   22 1   
    13    7    8 1   
    14    7   17 2   
    15    8    9 2   
    16    8   21 1   
    17    9   10 1   
    18    9   16 1   
    19   10   11 ar  
    20   10   15 ar  
    21   11   12 ar  
    22   11   26 1   
    23   12   13 ar  
    24   12   20 1   
    25   13   14 ar  
    26   13   19 1   
    27   14   15 ar  
    28   14   18 1   
    29   15   27 1   
    30   18   28 1   
    31   19   29 1   
    32   20   30 1   
    33   21   31 1   
    34   22   32 1   
    35   23   33 1   
@<TRIPOS>SUBSTRUCTURE
     1 MYC         1 TEMP              0 ****  ****    0 ROOT
