@<TRIPOS>MOLECULE
molecule
   70    74     1     0     0
SMALL
bcc


@<TRIPOS>ATOM
      1 C53          0.0000     0.0000     0.0000 c3         1 MYD       0.117700
      2 O51          1.4280     0.0000     0.0000 os         1 MYD      -0.294900
      3 C46          1.8210     0.0000     1.2990 ca         1 MYD       0.149100
      4 C47          2.0210    -1.2070     1.9630 ca         1 MYD      -0.109300
      5 C52          1.8020    -2.5100     1.2380 c3         1 MYD      -0.043800
      6 C48          2.4140    -1.2150     3.2660 ca         1 MYD      -0.101300
      7 C49          2.7120    -2.3180     4.2500 c3         1 MYD       0.184700
      8 O50          3.0870    -1.6660     5.4950 os         1 MYD      -0.399900
      9 C42          3.0350    -0.3340     5.3240 c          1 MYD       0.754200
     10 O43          3.2950     0.4860     6.1820 o          1 MYD      -0.587500
     11 C41          2.6210    -0.0120     3.9530 ca         1 MYD      -0.279600
     12 C40          2.4210     1.2070     3.2850 ca         1 MYD       0.222100
     13 O31          2.6160     2.3810     3.9360 oh         1 MYD      -0.495100
     14 C39          2.0260     1.2030     1.9580 ca         1 MYD      -0.093300
     15 C38          1.8080     2.5060     1.2340 c3         1 MYD      -0.042100
     16 C37          3.1160     2.9510     0.5780 c3         1 MYD       0.169400
     17 O36          2.9100     4.1860    -0.1090 os         1 MYD      -0.563200
     18 P35          4.3200     4.5920    -0.7710 p5         1 MYD       1.139600
     19 O45          4.7820     3.4400    -1.7950 o          1 MYD      -0.798500
     20 O30          5.3380     4.7460     0.2910 o          1 MYD      -0.798500
     21 C34          4.1370     6.1670    -1.6710 c3         1 MYD      -0.407800
     22 P33          5.7320     6.6260    -2.4210 p5         1 MYD       1.130600
     23 O44          6.1960     5.4730    -3.4450 o          1 MYD      -0.797500
     24 O29          6.7510     6.7800    -1.3580 o          1 MYD      -0.797500
     25 O32          5.5730     8.0170    -3.2160 os         1 MYD      -0.547200
     26 C28          6.8500     8.3220    -3.7780 c3         1 MYD       0.161400
     27 C27          6.7650     9.6390    -4.5520 c3         1 MYD       0.121100
     28 O24          6.4110    10.7070    -3.6580 os         1 MYD      -0.382600
     29 C26          8.1410     9.9800    -5.1550 c3         1 MYD       0.088100
     30 O25          8.0620    10.0670    -6.5800 oh         1 MYD      -0.587800
     31 C22          8.4860    11.3650    -4.5470 c3         1 MYD       0.084100
     32 O21          9.0800    12.2190    -5.5270 oh         1 MYD      -0.576800
     33 C23          7.0920    11.8920    -4.1260 c3         1 MYD       0.245800
     34 N20          7.2120    12.8770    -3.0500 na         1 MYD      -0.243000
     35 C16          7.2810    12.6100    -1.7150 cc         1 MYD       0.476700
     36 N15          7.3830    13.7200    -1.0440 nd         1 MYD      -0.607100
     37 C14          7.3830    14.7670    -1.9020 ca         1 MYD      -0.149200
     38 C19          7.2790    14.2400    -3.2000 ca         1 MYD       0.440800
     39 N18          7.2510    15.0720    -4.2360 nb         1 MYD      -0.732000
     40 C17          7.3320    16.3730    -4.0530 ca         1 MYD       0.675900
     41 N12          7.4360    16.9150    -2.8530 nb         1 MYD      -0.790000
     42 C13          7.4660    16.1630    -1.7580 ca         1 MYD       0.753200
     43 N11          7.5770    16.7400    -0.5060 nv         1 MYD      -1.072500
     44 H531        -0.3610     0.8160    -0.6140 h1         1 MYD       0.034367
     45 H532        -0.3610    -0.9400    -0.4000 h1         1 MYD       0.034367
     46 H533        -0.3610     0.1240     1.0140 h1         1 MYD       0.034367
     47 H521         1.9710    -2.3660     0.1780 hc         1 MYD       0.042033
     48 H522         2.4910    -3.2550     1.6170 hc         1 MYD       0.042033
     49 H523         0.7840    -2.8460     1.3990 hc         1 MYD       0.042033
     50 H491         1.8290    -2.9270     4.4030 h1         1 MYD       0.065700
     51 H492         3.5320    -2.9260     3.8880 h1         1 MYD       0.065700
     52 H31          3.4930     2.4070     4.2820 ho         1 MYD       0.450000
     53 H381         1.4830     3.2610     1.9390 hc         1 MYD       0.056200
     54 H382         1.0500     2.3730     0.4720 hc         1 MYD       0.056200
     55 H371         3.4420     2.1960    -0.1270 h1         1 MYD       0.057700
     56 H372         3.8750     3.0840     1.3400 h1         1 MYD       0.057700
     57 H341         3.3920     6.0550    -2.4490 hc         1 MYD       0.046200
     58 H342         3.8260     6.9430    -0.9820 hc         1 MYD       0.046200
     59 H281         7.1480     7.5270    -4.4510 h1         1 MYD       0.062700
     60 H282         7.5810     8.4160    -2.9840 h1         1 MYD       0.062700
     61 H27          6.0280     9.5620    -5.3410 h1         1 MYD       0.077700
     62 H26          8.8770     9.2440    -4.8560 h1         1 MYD       0.063700
     63 H25          8.6350     9.4250    -6.9660 ho         1 MYD       0.400000
     64 H22          9.1300    11.2540    -3.6820 h1         1 MYD       0.057700
     65 H21         10.0140    12.2460    -5.3960 ho         1 MYD       0.394000
     66 H23          6.5740    12.3120    -4.9800 h2         1 MYD       0.102700
     67 H16          7.2560    11.6190    -1.2780 h5         1 MYD       0.116800
     68 H17          7.3110    17.0240    -4.9190 h5         1 MYD       0.049100
     69 H111         8.4820    16.9160    -0.1140 hn         1 MYD       0.435800
     70 H112         6.7540    17.0070    -0.0030 hn         1 MYD       0.435800
@<TRIPOS>BOND
     1     1     2 1
     2     1    44 1
     3     1    45 1
     4     1    46 1
     5     2     3 1
     6     3     4 ar
     7     3    14 ar
     8     4     5 1
     9     4     6 ar
    10     5    47 1
    11     5    48 1
    12     5    49 1
    13     6     7 1
    14     6    11 ar
    15     7     8 1
    16     7    50 1
    17     7    51 1
    18     8     9 1
    19     9    10 2
    20     9    11 1
    21    11    12 ar
    22    12    13 1
    23    12    14 ar
    24    13    52 1
    25    14    15 1
    26    15    16 1
    27    15    53 1
    28    15    54 1
    29    16    17 1
    30    16    55 1
    31    16    56 1
    32    17    18 1
    33    18    19 1
    34    18    20 1
    35    18    21 1
    36    21    22 1
    37    21    57 1
    38    21    58 1
    39    22    23 1
    40    22    24 1
    41    22    25 1
    42    25    26 1
    43    26    27 1
    44    26    59 1
    45    26    60 1
    46    27    28 1
    47    27    29 1
    48    27    61 1
    49    28    33 1
    50    29    30 1
    51    29    31 1
    52    29    62 1
    53    30    63 1
    54    31    32 1
    55    31    33 1
    56    31    64 1
    57    32    65 1
    58    33    34 1
    59    33    66 1
    60    34    35 1
    61    34    38 1
    62    35    36 2
    63    35    67 1
    64    36    37 1
    65    37    38 ar
    66    37    42 ar
    67    38    39 ar
    68    39    40 ar
    69    40    41 ar
    70    40    68 1
    71    41    42 ar
    72    42    43 1
    73    43    69 1
    74    43    70 1
@<TRIPOS>SUBSTRUCTURE
     1 MYD         1 TEMP              0 ****  ****    0 ROOT
