@<TRIPOS>MOLECULE
MYE
   56    56     1     0     0
SMALL
bcc


@<TRIPOS>ATOM
      1 C2           0.0000     0.0000     0.0000 c3         1 MYE      -0.022400
      2 C3           1.5280     0.0000     0.0000 c3         1 MYE      -0.033400
      3 C4           2.0830     0.0000     1.4280 c3         1 MYE      -0.024400
      4 C5           3.6110     0.0270     1.4660 c3         1 MYE      -0.100300
      5 N6           4.1660    -1.1570     0.8500 ns         1 MYE      -0.210900
      6 C7           5.0420    -1.1170    -0.2250 c          1 MYE       0.574100
      7 O8           5.4420    -0.0900    -0.7690 o          1 MYE      -0.612100
      8 C9           5.4220    -2.5140    -0.7070 c3         1 MYE      -0.049300
      9 C10          6.7330    -2.9640    -0.0510 c3         1 MYE      -0.022400
     10 C11          7.2410    -4.3480    -0.5020 c3         1 MYE      -0.047700
     11 C12          7.4380    -4.3560    -2.0200 c3         1 MYE      -0.007100
     12 C13          6.2900    -5.4770    -0.1000 c3         1 MYE      -0.007100
     13 N14          5.5230    -2.4540    -2.1420 ns         1 MYE      -0.184900
     14 C15          4.4510    -2.6240    -2.9970 c          1 MYE       0.695100
     15 O16          3.2940    -2.8430    -2.6570 o          1 MYE      -0.633000
     16 O17          4.8700    -2.5100    -4.2930 os         1 MYE      -0.419900
     17 C18          3.8560    -2.6660    -5.2930 c3         1 MYE       0.289700
     18 C19          4.4790    -2.5140    -6.6500 ca         1 MYE      -0.115300
     19 C20          4.5500    -1.2560    -7.2380 ca         1 MYE      -0.069000
     20 C21          5.1290    -1.1150    -8.4980 ca         1 MYE      -0.087000
     21 C22          5.6340    -2.2320    -9.1630 ca         1 MYE       0.041100
     22 Br2          6.4190    -2.0410   -10.8720 br         1 MYE      -0.127100
     23 C24          5.5590    -3.4910    -8.5680 ca         1 MYE      -0.087000
     24 C25          4.9790    -3.6320    -7.3060 ca         1 MYE      -0.069000
     25 C26          4.1740     0.0390     2.8730 c          1 MYE       0.631900
     26 O27          3.6450     0.6220     3.8150 o          1 MYE      -0.543100
     27 C1          -0.5580     0.0270    -1.4150 c3         1 MYE       0.006900
     28 H21A        -0.3540    -0.8920     0.5030 hc         1 MYE       0.009700
     29 H22         -0.3540     0.8720     0.5360 hc         1 MYE       0.009700
     30 H31          1.8830    -0.8830    -0.5180 hc         1 MYE       0.022700
     31 H32          1.8830     0.8830    -0.5180 hc         1 MYE       0.022700
     32 H41          1.7050     0.8710     1.9500 hc         1 MYE       0.025700
     33 H42          1.7370    -0.8910     1.9380 hc         1 MYE       0.025700
     34 H5           3.9640     0.9030     0.9350 h1         1 MYE       0.082700
     35 HN6          3.9060    -2.0510     1.2180 hn         1 MYE       0.182500
     36 H9           4.6350    -3.2080    -0.4370 h1         1 MYE       0.057700
     37 H101         6.5860    -2.9870     1.0220 hc         1 MYE       0.025200
     38 H102         7.4970    -2.2300    -0.2770 hc         1 MYE       0.025200
     39 H11          8.2000    -4.5270    -0.0320 hc         1 MYE       0.028700
     40 H121         6.4840    -4.5150    -2.5080 hc         1 MYE       0.009200
     41 H122         7.8510    -3.4050    -2.3350 hc         1 MYE       0.009200
     42 H123         8.1200    -5.1530    -2.2910 hc         1 MYE       0.009200
     43 H131         5.4280    -5.4740    -0.7560 hc         1 MYE       0.009200
     44 H132         6.8030    -6.4270    -0.1830 hc         1 MYE       0.009200
     45 H133         5.9660    -5.3300     0.9230 hc         1 MYE       0.009200
     46 H14          6.4220    -2.2770    -2.5440 hn         1 MYE       0.203500
     47 H181         3.0940    -1.9080    -5.1570 h1         1 MYE       0.014200
     48 H182         3.4100    -3.6490    -5.2070 h1         1 MYE       0.014200
     49 H20          4.1570    -0.3900    -6.7190 ha         1 MYE       0.112500
     50 H21          5.1870    -0.1370    -8.9610 ha         1 MYE       0.117500
     51 H24          5.9510    -4.3590    -9.0840 ha         1 MYE       0.117500
     52 H25          4.9190    -4.6090    -6.8410 ha         1 MYE       0.112500
     53 H26          5.0970    -0.5000     3.0510 h4         1 MYE      -0.039800
     54 H11A        -1.6260     0.2060    -1.3790 hc         1 MYE       0.002367
     55 H12         -0.3680    -0.9250    -1.8960 hc         1 MYE       0.002367
     56 H13         -0.0780     0.8180    -1.9780 hc         1 MYE       0.002367
@<TRIPOS>BOND
     1     1     2 1   
     2     1    27 1   
     3     1    28 1   
     4     1    29 1   
     5     2     3 1   
     6     2    30 1   
     7     2    31 1   
     8     3     4 1   
     9     3    32 1   
    10     3    33 1   
    11     4     5 1   
    12     4    25 1   
    13     4    34 1   
    14     5     6 1   
    15     5    35 1   
    16     6     7 2   
    17     6     8 1   
    18     8     9 1   
    19     8    13 1   
    20     8    36 1   
    21     9    10 1   
    22     9    37 1   
    23     9    38 1   
    24    10    11 1   
    25    10    12 1   
    26    10    39 1   
    27    11    40 1   
    28    11    41 1   
    29    11    42 1   
    30    12    43 1   
    31    12    44 1   
    32    12    45 1   
    33    13    14 1   
    34    13    46 1   
    35    14    15 2   
    36    14    16 1   
    37    16    17 1   
    38    17    18 1   
    39    17    47 1   
    40    17    48 1   
    41    18    19 ar  
    42    18    24 ar  
    43    19    20 ar  
    44    19    49 1   
    45    20    21 ar  
    46    20    50 1   
    47    21    22 1   
    48    21    23 ar  
    49    23    24 ar  
    50    23    51 1   
    51    24    52 1   
    52    25    26 2   
    53    25    53 1   
    54    27    54 1   
    55    27    55 1   
    56    27    56 1   
@<TRIPOS>SUBSTRUCTURE
     1 MYE         1 TEMP              0 ****  ****    0 ROOT
