@<TRIPOS>MOLECULE
MYF
   32    34     1     0     0
SMALL
bcc


@<TRIPOS>ATOM
      1 O22        -0.0880    0.0800   -0.0010 o         1 MYF     -0.520100
      2 C7          1.1480    0.0350    0.0180 c         1 MYF      0.595900
      3 C6          1.9550    0.0170    1.2420 ca        1 MYF     -0.278600
      4 C1          1.3810    0.0530    2.5350 ca        1 MYF      0.248100
      5 O21         0.0180    0.1060    2.6040 oh        1 MYF     -0.448100
      6 C2          2.1770    0.0340    3.6870 ca        1 MYF     -0.349000
      7 C3          3.5720   -0.0210    3.5510 ca        1 MYF      0.217100
      8 O20         4.4110   -0.0430    4.6350 oh        1 MYF     -0.484100
      9 C5          3.3590   -0.0370    1.1610 ca        1 MYF      0.210100
     10 C4          4.1860   -0.0580    2.2920 ca        1 MYF     -0.230000
     11 O10         4.0450   -0.0770   -0.0410 os        1 MYF     -0.220200
     12 C9          3.2890   -0.0590   -1.2070 cc        1 MYF      0.174900
     13 C8          1.9400   -0.0040   -1.2170 cd        1 MYF     -0.296200
     14 C11         4.1460   -0.0950   -2.3970 ca        1 MYF     -0.007800
     15 C12         3.6580   -0.6880   -3.5680 ca        1 MYF     -0.154000
     16 C13         4.4630   -0.7000   -4.7150 ca        1 MYF      0.149600
     17 O19         3.9490   -1.2790   -5.8480 oh        1 MYF     -0.486600
     18 C14         5.7410   -0.1140   -4.6920 ca        1 MYF     -0.076900
     19 O18         6.5550   -0.1830   -5.8090 oh        1 MYF     -0.517100
     20 C15         6.2300    0.4440   -3.4980 ca        1 MYF      0.149600
     21 C16         5.4300    0.4600   -2.3470 ca        1 MYF     -0.154000
     22 O17         7.4780    1.0060   -3.4160 oh        1 MYF     -0.486600
     23 HO21       -0.2390    0.1240    3.5400 ho        1 MYF      0.422000
     24 H2          1.7150    0.0620    4.6830 ha        1 MYF      0.143000
     25 HO20        3.8700   -0.0150    5.4390 ho        1 MYF      0.427000
     26 H4          5.2790   -0.1030    2.1960 ha        1 MYF      0.175000
     27 H8          1.3770    0.0210   -2.1630 ha        1 MYF      0.172000
     28 H12         2.6600   -1.1500   -3.6040 ha        1 MYF      0.168500
     29 HO19        4.6730   -1.3590   -6.4910 ho        1 MYF      0.435000
     30 HO18        6.3770    0.6220   -6.3220 ho        1 MYF      0.417000
     31 H16         5.8200    0.9030   -1.4180 ha        1 MYF      0.168500
     32 HO17        7.9590    0.7760   -4.2280 ho        1 MYF      0.435000
@<TRIPOS>BOND
     1    1    2 2   
     2    2    3 1   
     3    2   13 1   
     4    3    4 ar  
     5    3    9 ar  
     6    4    5 1   
     7    4    6 ar  
     8    5   23 1   
     9    6    7 ar  
    10    6   24 1   
    11    7    8 1   
    12    7   10 ar  
    13    8   25 1   
    14    9   10 ar  
    15    9   11 1   
    16   10   26 1   
    17   11   12 1   
    18   12   13 2   
    19   12   14 1   
    20   13   27 1   
    21   14   15 ar  
    22   14   21 ar  
    23   15   16 ar  
    24   15   28 1   
    25   16   17 1   
    26   16   18 ar  
    27   17   29 1   
    28   18   19 1   
    29   18   20 ar  
    30   19   30 1   
    31   20   21 ar  
    32   20   22 1   
    33   21   31 1   
    34   22   32 1   
@<TRIPOS>SUBSTRUCTURE
     1 MYF         1 TEMP              0 ****  ****    0 ROOT
