@<TRIPOS>MOLECULE
MYG
   47    48     1     0     0
SMALL
bcc


@<TRIPOS>ATOM
      1 C1           0.0000     0.0000     0.0000 c3         1 MYG       0.164100
      2 C2           1.5310     0.0000     0.0000 c3         1 MYG       0.147600
      3 C3           2.0400     0.0000     1.4420 c3         1 MYG       0.151100
      4 C4           1.5300    -1.2480     2.1630 c3         1 MYG       0.147600
      5 C5           0.0010    -1.2490     2.1630 c3         1 MYG       0.164100
      6 C6          -0.5100    -1.2480     0.7220 c3         1 MYG       0.158100
      7 C7          -2.3500    -2.6010     0.5160 c3         1 MYG       0.372900
      8 C8          -3.6700    -2.6130    -0.2600 c3         1 MYG      -0.143500
      9 C9          -4.7270    -1.8400     0.5350 c3         1 MYG       0.159100
     10 C10         -4.7980    -2.4210     1.9510 c3         1 MYG       0.153100
     11 C11         -3.3940    -2.4210     2.5610 c3         1 MYG       0.132100
     12 C12         -3.4600    -2.9690     3.9870 c3         1 MYG       0.234400
     13 N8          -3.4750    -1.9760    -1.5690 nz         1 MYG       0.092400
     14 O1          -0.4760    -0.0000    -1.3470 oh         1 MYG      -0.593300
     15 O2           2.0060    -1.1660    -0.6730 oh         1 MYG      -0.573800
     16 O3           1.5640     1.1670     2.1150 oh         1 MYG      -0.570800
     17 O4           2.0070    -1.2480     3.5110 oh         1 MYG      -0.573800
     18 O5          -0.4760    -2.4150     2.8370 oh         1 MYG      -0.593300
     19 O6          -1.9380    -1.2490     0.7220 os         1 MYG      -0.420600
     20 O9          -5.9980    -1.9700    -0.1040 oh         1 MYG      -0.590800
     21 O10         -5.6690    -1.6220     2.7520 oh         1 MYG      -0.564800
     22 O11         -2.5280    -3.2390     1.7780 os         1 MYG      -0.324600
     23 O12         -2.1790    -2.8390     4.6070 oh         1 MYG      -0.569800
     24 H1          -0.3590     0.8840     0.5140 h1         1 MYG       0.048700
     25 H2           1.8900     0.8870    -0.5080 h1         1 MYG       0.022200
     26 H3           3.1240    -0.0040     1.4400 h1         1 MYG       0.019700
     27 H4           1.8890    -2.1310     1.6490 h1         1 MYG       0.022200
     28 H5          -0.3580    -0.3620     2.6710 h1         1 MYG       0.048700
     29 H6          -0.1440    -2.1320     0.2120 h1         1 MYG       0.043700
     30 H7          -1.5950    -3.1320    -0.0510 h2         1 MYG       0.050700
     31 H8          -3.9980    -3.6370    -0.3950 hx         1 MYG       0.112700
     32 H9          -4.4470    -0.7950     0.5870 h1         1 MYG       0.042700
     33 H10         -5.1710    -3.4370     1.9050 h1         1 MYG       0.031700
     34 H11         -3.0110    -1.4080     2.5780 h1         1 MYG       0.066700
     35 H121        -4.1950    -2.4110     4.5550 h1         1 MYG       0.002200
     36 H122        -3.7440    -4.0140     3.9600 h1         1 MYG       0.002200
     37 HN81        -2.6200    -2.3010    -1.9750 hn         1 MYG       0.225800
     38 HN82        -3.4340    -0.9830    -1.4540 hn         1 MYG       0.225800
     39 HO1         -0.6120     0.8880    -1.6320 ho         1 MYG       0.409000
     40 HO2          2.6630    -0.9200    -1.3030 ho         1 MYG       0.402000
     41 HO3          2.2410     1.8240     2.1220 ho         1 MYG       0.402000
     42 HO4          2.7500    -1.8240     3.5810 ho         1 MYG       0.402000
     43 HO5          0.1800    -2.7190     3.4420 ho         1 MYG       0.409000
     44 HO9         -6.3840    -1.1170    -0.2120 ho         1 MYG       0.421000
     45 HO10        -6.4820    -2.0810     2.8870 ho         1 MYG       0.412000
     46 HO12        -2.2670    -2.9620     5.5380 ho         1 MYG       0.394000
     47 H83         -4.2370    -2.2150    -2.1730 hn         1 MYG       0.225800
@<TRIPOS>BOND
     1     1     2 1   
     2     1     6 1   
     3     1    14 1   
     4     1    24 1   
     5     2     3 1   
     6     2    15 1   
     7     2    25 1   
     8     3     4 1   
     9     3    16 1   
    10     3    26 1   
    11     4     5 1   
    12     4    17 1   
    13     4    27 1   
    14     5     6 1   
    15     5    18 1   
    16     5    28 1   
    17     6    19 1   
    18     6    29 1   
    19     7     8 1   
    20     7    19 1   
    21     7    22 1   
    22     7    30 1   
    23     8     9 1   
    24     8    13 1   
    25     8    31 1   
    26     9    10 1   
    27     9    20 1   
    28     9    32 1   
    29    10    11 1   
    30    10    21 1   
    31    10    33 1   
    32    11    12 1   
    33    11    22 1   
    34    11    34 1   
    35    12    23 1   
    36    12    35 1   
    37    12    36 1   
    38    13    37 1   
    39    13    38 1   
    40    13    47 1   
    41    14    39 1   
    42    15    40 1   
    43    16    41 1   
    44    17    42 1   
    45    18    43 1   
    46    20    44 1   
    47    21    45 1   
    48    23    46 1   
@<TRIPOS>SUBSTRUCTURE
     1 MYG         1 TEMP              0 ****  ****    0 ROOT
