@<TRIPOS>MOLECULE
MYI
   25    26     1     0     0
SMALL
bcc


@<TRIPOS>ATOM
      1 CAA        -0.0100   -0.1940   -0.1300 c3        1 MYI      0.121700
      2 OAB         7.9890    1.1980    3.5640 o         1 MYI     -0.849800
      3 OAC         8.2580    1.8720    1.4560 o         1 MYI     -0.849800
      4 CAD         1.1670   -0.2990    2.4470 ca        1 MYI     -0.187000
      5 CAE         1.8050   -0.0570    3.6580 ca        1 MYI     -0.134000
      6 CAF         5.3770    0.4660    4.1580 cc        1 MYI     -0.094100
      7 CAG         3.2960   -0.2000    1.2220 ca        1 MYI     -0.100000
      8 CAH         6.4920    0.3040    1.8700 c3        1 MYI     -0.142200
      9 NAI         4.0930    0.3050    4.7150 na        1 MYI     -0.203400
     10 OAJ         1.3150   -0.6770    0.0290 os        1 MYI     -0.340900
     11 CAK         7.6600    1.1990    2.3410 c         1 MYI      0.916600
     12 CAL         1.9080   -0.3710    1.2530 ca        1 MYI      0.059100
     13 CAM         5.3440    0.2760    2.7790 cd        1 MYI     -0.091400
     14 CAN         3.1920    0.1130    3.6570 ca        1 MYI     -0.083200
     15 CAO         3.9540    0.0430    2.4220 ca        1 MYI     -0.060800
     16 HAA        -0.7280   -0.8530    0.4190 h1        1 MYI      0.029033
     17 HAAA       -0.1940   -0.2580   -1.2320 h1        1 MYI      0.029033
     18 HAAB       -0.1090    0.8590    0.2270 h1        1 MYI      0.029033
     19 HAD         0.0780   -0.4350    2.4250 ha        1 MYI      0.117000
     20 HAE         1.2280   -0.0020    4.5900 ha        1 MYI      0.116000
     21 HAF         6.2630    0.6960    4.7670 h4        1 MYI      0.222000
     22 HAG         3.8490   -0.2610    0.2740 ha        1 MYI      0.151000
     23 HAH         6.9040   -0.7350    1.7590 hc        1 MYI      0.037200
     24 HAHA        6.1640    0.6490    0.8540 hc        1 MYI      0.037200
     25 HNAI        3.8240    0.7090    5.5730 hn        1 MYI      0.270700
@<TRIPOS>BOND
     1    1   10 1   
     2    1   16 1   
     3    1   17 1   
     4    1   18 1   
     5    2   11 1   
     6    3   11 1   
     7    4    5 ar  
     8    4   12 ar  
     9    4   19 1   
    10    5   14 ar  
    11    5   20 1   
    12    6    9 1   
    13    6   13 2   
    14    6   21 1   
    15    7   12 ar  
    16    7   15 ar  
    17    7   22 1   
    18    8   11 1   
    19    8   13 1   
    20    8   23 1   
    21    8   24 1   
    22    9   14 1   
    23    9   25 1   
    24   10   12 1   
    25   13   15 1   
    26   14   15 ar  
@<TRIPOS>SUBSTRUCTURE
     1 MYI         1 TEMP              0 ****  ****    0 ROOT
