@<TRIPOS>MOLECULE
molecule
   25    26     1     0     0
SMALL
bcc


@<TRIPOS>ATOM
      1 CAA          0.0000     0.0000     0.0000 c3         1 MYI       0.135700
      2 OAB          6.3200     2.3270     2.0730 o          1 MYI      -0.846300
      3 OAC          8.0500     1.6550     0.8750 o          1 MYI      -0.846300
      4 CAD          1.2840     0.0000     2.3790 ca         1 MYI      -0.202000
      5 CAE          1.8930    -0.0010     3.6140 ca         1 MYI      -0.131000
      6 CAF          5.4470    -0.0020     4.3060 cc         1 MYI      -0.131100
      7 CAG          3.4240    -0.0020     1.2810 ca         1 MYI      -0.082000
      8 CAH          6.6660    -0.0040     2.0710 c3         1 MYI      -0.126200
      9 NAI          4.1590    -0.0020     4.7670 na         1 MYI      -0.198400
     10 OAJ          1.4280     0.0000     0.0000 os         1 MYI      -0.333900
     11 CAK          6.9990     1.4120     1.6740 c          1 MYI       0.891600
     12 CAL          2.0460    -0.0000     1.2120 ca         1 MYI       0.077100
     13 CAM          5.4520    -0.0020     2.9630 cd         1 MYI      -0.062400
     14 CAN          3.2810    -0.0010     3.7050 ca         1 MYI      -0.067200
     15 CAO          4.0530    -0.0020     2.5300 ca         1 MYI      -0.047800
     16 HAA         -0.3610    -0.0000    -1.0210 h1         1 MYI       0.028033
     17 HAAA        -0.3610     0.8850     0.5100 h1         1 MYI       0.028033
     18 HAAB        -0.3610    -0.8840     0.5110 h1         1 MYI       0.028033
     19 HAD          0.2020     0.0010     2.3140 ha         1 MYI       0.115000
     20 HAE          1.2910    -0.0010     4.5140 ha         1 MYI       0.107000
     21 HAF          6.3320    -0.0030     4.9310 h4         1 MYI       0.159000
     22 HAG          4.0150    -0.0020     0.3730 ha         1 MYI       0.155000
     23 HAH          6.4610    -0.5890     1.1820 hc         1 MYI       0.037700
     24 HAHA         7.5050    -0.4360     2.6020 hc         1 MYI       0.037700
     25 HNAI         3.8940    -0.0020     5.7320 hn         1 MYI       0.274700
@<TRIPOS>BOND
     1     1    10 1
     2     2    11 1
     3     3    11 1
     4     4     5 ar
     5     4    12 ar
     6     5    14 ar
     7     6     9 1
     8     6    13 2
     9     7    12 ar
    10     7    15 ar
    11     8    11 1
    12     8    13 1
    13     9    14 1
    14    10    12 1
    15    13    15 1
    16    14    15 ar
    17     1    16 1
    18     1    17 1
    19     1    18 1
    20     4    19 1
    21     5    20 1
    22     6    21 1
    23     7    22 1
    24     8    23 1
    25     8    24 1
    26     9    25 1
@<TRIPOS>SUBSTRUCTURE
     1 MYI         1 TEMP              0 ****  ****    0 ROOT
