@<TRIPOS>MOLECULE
molecule
   83    86     1     0     0
SMALL
bcc


@<TRIPOS>ATOM
      1 N3           0.0000     0.0000     0.0000 n          1 MYP      -0.520800
      2 C23          1.4070     1.1570     2.2470 c3         1 MYP       0.176500
      3 C21          1.4660     0.0000     0.0000 c3         1 MYP       0.115500
      4 C22          1.9980     0.0000     1.4330 c3         1 MYP      -0.097900
      5 C25         -0.5940     1.1420     0.7120 c3         1 MYP       0.115500
      6 C24         -0.1240     1.1610     2.1650 c3         1 MYP      -0.097900
      7 C20         -0.6910    -1.0320    -0.6560 c          1 MYP       0.803100
      8 O4          -0.1130    -1.9540    -1.2410 o          1 MYP      -0.640100
      9 N4           1.8490     1.0960     3.6380 n3         1 MYP      -0.719600
     10 C29          1.2820     2.2060     4.4160 c3         1 MYP       0.120800
     11 C28          1.7670     2.1290     5.8600 c3         1 MYP       0.132900
     12 C26          3.3160     1.1220     3.7200 c3         1 MYP       0.120800
     13 C27          3.7530     1.0680     5.1820 c3         1 MYP       0.132900
     14 O5           3.1940     2.1630     5.9080 os         1 MYP      -0.413600
     15 N2          -2.0770    -0.9580    -0.6020 ns         1 MYP      -0.600900
     16 C12         -2.9230    -1.9520    -1.2260 c3         1 MYP       0.064700
     17 C13         -3.2970    -3.0820    -0.2610 c3         1 MYP      -0.050100
     18 C14         -3.7330    -4.3380    -0.9740 ca         1 MYP      -0.103300
     19 C15         -5.0740    -4.5140    -1.2820 ca         1 MYP      -0.127500
     20 C19         -2.7870    -5.2930    -1.3100 ca         1 MYP      -0.127500
     21 C16         -5.4780    -5.6750    -1.9420 ca         1 MYP      -0.124500
     22 C18         -3.1910    -6.4540    -1.9700 ca         1 MYP      -0.124500
     23 C17         -4.5360    -6.6450    -2.2860 ca         1 MYP      -0.119000
     24 C11         -4.1780    -1.2340    -1.7120 c          1 MYP       0.666100
     25 O3          -4.6860    -0.2920    -1.1080 o          1 MYP      -0.597100
     26 N1          -4.6280    -1.7380    -2.9240 ns         1 MYP      -0.586900
     27 C7          -5.7700    -1.2040    -3.6300 c3         1 MYP       0.134900
     28 C8          -5.3370    -0.0590    -4.5550 c3         1 MYP      -0.094400
     29 C9          -6.5080     0.5750    -5.3130 c3         1 MYP      -0.083400
     30 CT          -6.4130    -2.3440    -4.3730 c2         1 MYP      -0.008200
     31 C4          -9.8480    -4.3590    -4.3610 ca         1 MYP      -0.270500
     32 C1         -12.3710    -4.7460    -3.3010 ca         1 MYP      -0.077000
     33 C2         -12.1920    -3.8730    -4.3730 ca         1 MYP      -0.147000
     34 C3         -10.9180    -3.6780    -4.9080 ca         1 MYP      -0.034500
     35 C5         -10.0040    -5.2280    -3.2970 ca         1 MYP      -0.034500
     36 C6         -11.2770    -5.4240    -2.7620 ca         1 MYP      -0.147000
     37 S1          -8.2310    -4.1100    -5.0400 sy         1 MYP       1.198200
     38 O1          -7.4470    -5.2980    -4.7440 o          1 MYP      -0.606300
     39 O2          -8.4170    -3.6960    -6.4200 o          1 MYP      -0.606300
     40 H231         1.7660     2.0850     1.8170 h1         1 MYP       0.017700
     41 H211         1.8220     0.8850    -0.5130 h1         1 MYP       0.053200
     42 H212         1.8220    -0.8850    -0.5130 h1         1 MYP       0.053200
     43 H221         1.7330    -0.9370     1.9080 hc         1 MYP       0.057700
     44 H222         3.0760     0.0990     1.4090 hc         1 MYP       0.057700
     45 H251        -1.6740     1.0550     0.6880 h1         1 MYP       0.053200
     46 H252        -0.2920     2.0620     0.2270 h1         1 MYP       0.053200
     47 H241        -0.5030     2.0540     2.6480 hc         1 MYP       0.057700
     48 H242        -0.5090     0.2850     2.6730 hc         1 MYP       0.057700
     49 H291         0.2010     2.1410     4.3970 h1         1 MYP       0.044200
     50 H292         1.5980     3.1470     3.9820 h1         1 MYP       0.044200
     51 H281         1.4170     1.2050     6.3050 h1         1 MYP       0.053450
     52 H282         1.3710     2.9710     6.4150 h1         1 MYP       0.053450
     53 H261         3.6850     2.0350     3.2690 h1         1 MYP       0.044200
     54 H262         3.7200     0.2650     3.1940 h1         1 MYP       0.044200
     55 H271         4.8340     1.1220     5.2330 h1         1 MYP       0.053450
     56 H272         3.4140     0.1380     5.6220 h1         1 MYP       0.053450
     57 HN2         -2.5030    -0.1930    -0.1170 hn         1 MYP       0.332500
     58 H112        -2.4040    -2.3720    -2.0790 h1         1 MYP       0.090700
     59 H131        -4.1050    -2.7440     0.3770 hc         1 MYP       0.064700
     60 H132        -2.4370    -3.3130     0.3570 hc         1 MYP       0.064700
     61 H15         -5.8000    -3.7570    -1.0120 ha         1 MYP       0.137000
     62 H19         -1.7430    -5.1390    -1.0620 ha         1 MYP       0.137000
     63 H16         -6.5220    -5.8230    -2.1870 ha         1 MYP       0.135500
     64 H18         -2.4600    -7.2070    -2.2370 ha         1 MYP       0.135500
     65 H17         -4.8500    -7.5470    -2.7980 ha         1 MYP       0.137000
     66 HN1         -4.1360    -2.5090    -3.3310 hn         1 MYP       0.328500
     67 HC7         -6.4780    -0.8170    -2.9060 h1         1 MYP       0.082700
     68 HC81        -4.8530     0.7060    -3.9600 hc         1 MYP       0.055200
     69 HC82        -4.6240    -0.4430    -5.2750 hc         1 MYP       0.055200
     70 H101        -5.2830     1.3640    -6.8830 hc         1 MYP       0.036367
     71 H102        -6.8820     2.1100    -6.7590 hc         1 MYP       0.036367
     72 H103        -5.6260     2.5080    -5.5780 hc         1 MYP       0.036367
     73 HC91        -6.9790    -0.1790    -5.9320 hc         1 MYP       0.043200
     74 HC92        -7.2310     0.9500    -4.5990 hc         1 MYP       0.043200
     75 HCM         -8.2440    -2.3420    -3.3220 h4         1 MYP       0.183000
     76 HCT         -5.8450    -2.8250    -5.1600 ha         1 MYP       0.136000
     77 HC1        -13.3600    -4.8980    -2.8850 ha         1 MYP       0.136000
     78 HC2        -13.0420    -3.3470    -4.7910 ha         1 MYP       0.139000
     79 HC3        -10.7710    -3.0020    -5.7420 ha         1 MYP       0.153500
     80 HC5         -9.1490    -5.7500    -2.8850 ha         1 MYP       0.153500
     81 HC6        -11.4160    -6.1020    -1.9290 ha         1 MYP       0.139000
     82 CM          -7.6450    -2.7920    -4.1040 ce         1 MYP      -0.377100
     83 C10         -6.0410     1.7220    -6.1970 c3         1 MYP      -0.088100
@<TRIPOS>BOND
     1     1     3 1
     2     1     5 1
     3     1     7 1
     4     2     4 1
     5     2     6 1
     6     2     9 1
     7     2    40 1
     8     3     4 1
     9     3    41 1
    10     3    42 1
    11     4    43 1
    12     4    44 1
    13     5     6 1
    14     5    45 1
    15     5    46 1
    16     6    47 1
    17     6    48 1
    18     7     8 2
    19     7    15 1
    20     9    10 1
    21     9    12 1
    22    10    11 1
    23    10    49 1
    24    10    50 1
    25    11    14 1
    26    11    51 1
    27    11    52 1
    28    12    13 1
    29    12    53 1
    30    12    54 1
    31    13    14 1
    32    13    55 1
    33    13    56 1
    34    15    16 1
    35    15    57 1
    36    16    17 1
    37    16    24 1
    38    16    58 1
    39    17    18 1
    40    17    59 1
    41    17    60 1
    42    18    19 ar
    43    18    20 ar
    44    19    21 ar
    45    19    61 1
    46    20    22 ar
    47    20    62 1
    48    21    23 ar
    49    21    63 1
    50    22    23 ar
    51    22    64 1
    52    23    65 1
    53    24    25 2
    54    24    26 1
    55    26    27 1
    56    26    66 1
    57    27    28 1
    58    27    30 1
    59    27    67 1
    60    28    29 1
    61    28    68 1
    62    28    69 1
    63    83    29 1
    64    83    70 1
    65    83    71 1
    66    83    72 1
    67    29    73 1
    68    29    74 1
    69    82    30 2
    70    82    37 1
    71    82    75 1
    72    30    76 1
    73    31    34 ar
    74    31    35 ar
    75    31    37 1
    76    32    33 ar
    77    32    36 ar
    78    32    77 1
    79    33    34 ar
    80    33    78 1
    81    34    79 1
    82    35    36 ar
    83    35    80 1
    84    36    81 1
    85    37    38 2
    86    37    39 2
@<TRIPOS>SUBSTRUCTURE
     1 MYP         1 TEMP              0 ****  ****    0 ROOT
