@<TRIPOS>MOLECULE
MYP
   85    88     1     0     0
SMALL
bcc


@<TRIPOS>ATOM
      1 N3         -1.6550    1.0950    0.8540 n         1 MYP     -0.352800
      2 C23         1.0140    1.5020    2.0540 c3        1 MYP      0.193500
      3 C21        -0.5770    1.7570    0.0970 c3        1 MYP      0.053500
      4 C22         0.8170    1.3250    0.5390 c3        1 MYP     -0.116400
      5 C25        -1.4860    1.2330    2.2970 c3        1 MYP      0.053500
      6 C24        -0.1230    0.7610    2.7930 c3        1 MYP     -0.116400
      7 C20        -2.2940    0.0590    0.2450 c         1 MYP      0.639100
      8 O4         -2.4140   -0.1770   -0.9690 o         1 MYP     -0.564100
      9 N4          2.3160    1.0260    2.5360 n3        1 MYP     -0.727600
     10 C29         2.6260    1.5790    3.8540 c3        1 MYP      0.125800
     11 C28         4.0160    1.1710    4.3600 c3        1 MYP      0.125400
     12 C26         3.4050    1.2310    1.5870 c3        1 MYP      0.125800
     13 C27         4.7760    0.8400    2.1600 c3        1 MYP      0.125400
     14 O5          5.0200    1.4800    3.4040 os        1 MYP     -0.392600
     15 N2         -3.1660   -0.9100    1.1020 n4        1 MYP     -0.677800
     16 C12        -3.6590   -2.0520    0.2650 c3        1 MYP      0.062500
     17 C13        -4.3580   -3.1520    1.0950 c3        1 MYP     -0.044100
     18 C14        -4.5380   -4.3620    0.2510 ca        1 MYP     -0.198300
     19 C15        -5.8070   -4.7030   -0.2390 ca        1 MYP     -0.144000
     20 C19        -3.4550   -5.2220    0.0230 ca        1 MYP     -0.144000
     21 C16        -5.9870   -5.8850   -0.9570 ca        1 MYP     -0.108000
     22 C18        -3.6390   -6.4060   -0.6900 ca        1 MYP     -0.108000
     23 C17        -4.9040   -6.7380   -1.1800 ca        1 MYP     -0.078000
     24 C11        -4.6530   -1.5360   -0.7880 c         1 MYP      0.545100
     25 O3         -5.4380   -0.6200   -0.5860 o         1 MYP     -0.403100
     26 N1         -4.6480   -2.2650   -2.0790 n4        1 MYP     -0.664800
     27 C7         -5.5240   -1.6500   -3.1750 c3        1 MYP      0.163700
     28 C8         -4.7050   -0.7100   -4.0620 c3        1 MYP     -0.105400
     29 C9         -5.6300    0.0390   -5.0050 c3        1 MYP     -0.075400
     30 CT         -6.1210   -2.7810   -3.9620 c2        1 MYP     -0.119200
     31 C4         -9.3460   -4.2160   -4.9760 ca        1 MYP     -0.453500
     32 C1        -11.8270   -3.3890   -6.0120 ca        1 MYP     -0.026000
     33 C2        -10.6870   -3.3560   -6.8180 ca        1 MYP     -0.147000
     34 C3         -9.4630   -3.7680   -6.3050 ca        1 MYP     -0.006500
     35 C5        -10.5080   -4.2470   -4.1840 ca        1 MYP     -0.006500
     36 C6        -11.7340   -3.8370   -4.6920 ca        1 MYP     -0.147000
     37 S1         -7.9200   -4.7670   -4.4030 sy        1 MYP      1.435200
     38 O1         -8.0600   -5.6510   -3.3220 o         1 MYP     -0.648300
     39 O2         -7.0050   -5.1030   -5.4050 o         1 MYP     -0.648300
     40 H231        0.8850    2.6090    2.2750 h1        1 MYP      0.042700
     41 H211       -0.7110    1.5570   -1.0040 h1        1 MYP      0.093200
     42 H212       -0.7230    2.8610    0.2820 h1        1 MYP      0.093200
     43 H221        1.0060    0.2610    0.2430 hc        1 MYP      0.081450
     44 H222        1.5470    1.9720   -0.0210 hc        1 MYP      0.081450
     45 H251       -2.3060    0.7160    2.8640 h1        1 MYP      0.093200
     46 H252       -1.5920    2.3430    2.5030 h1        1 MYP      0.093200
     47 H241       -0.0730    0.9800    3.8930 hc        1 MYP      0.081450
     48 H242       -0.0100   -0.3450    2.6610 hc        1 MYP      0.081450
     49 H291        1.8640    1.1910    4.5850 h1        1 MYP      0.043200
     50 H292        2.5680    2.7070    3.8520 h1        1 MYP      0.043200
     51 H281        4.0450    0.0760    4.6040 h1        1 MYP      0.068700
     52 H282        4.2890    1.7780    5.2630 h1        1 MYP      0.068700
     53 H261        3.2170    0.5780    0.6900 h1        1 MYP      0.043200
     54 H262        3.4590    2.3050    1.2440 h1        1 MYP      0.043200
     55 H271        4.8500   -0.2730    2.2820 h1        1 MYP      0.068700
     56 H272        5.5910    1.2120    1.4850 h1        1 MYP      0.068700
     57 HN2        -2.6110   -1.2900    1.8780 hn        1 MYP      0.474800
     58 H112       -2.7440   -2.5030   -0.2350 hx        1 MYP      0.143700
     59 H131       -5.3460   -2.7770    1.4780 hc        1 MYP      0.098700
     60 H132       -3.7200   -3.4130    1.9850 hc        1 MYP      0.098700
     61 H15        -6.6800   -4.0720   -0.0080 ha        1 MYP      0.138500
     62 H19        -2.4620   -4.9850    0.4350 ha        1 MYP      0.138500
     63 H16        -6.9890   -6.1520   -1.3490 ha        1 MYP      0.188000
     64 H18        -2.7880   -7.0890   -0.8500 ha        1 MYP      0.188000
     65 H17        -5.0540   -7.6830   -1.7320 ha        1 MYP      0.180000
     66 HN1        -4.9740   -3.2370   -1.8900 hn        1 MYP      0.482800
     67 HC7        -6.3390   -1.0580   -2.6540 hx        1 MYP      0.129700
     68 HC81       -3.9560   -1.2940   -4.6610 hc        1 MYP      0.069700
     69 HC82       -4.1450    0.0300   -3.4290 hc        1 MYP      0.069700
     70 H101       -5.5360    1.4910   -6.6000 hc        1 MYP      0.054700
     71 H102       -4.2600    1.6940   -5.3300 hc        1 MYP      0.054700
     72 H103       -4.1270    0.3530   -6.5440 hc        1 MYP      0.054700
     73 HC91       -6.3630    0.6480   -4.4110 hc        1 MYP      0.059200
     74 HC92       -6.2180   -0.6970   -5.6160 hc        1 MYP      0.059200
     75 HCM        -7.8990   -2.9440   -2.8150 h4        1 MYP      0.168000
     76 HCT        -5.5280   -3.1300   -4.8320 ha        1 MYP      0.188000
     77 HC1       -12.8010   -3.0690   -6.4200 ha        1 MYP      0.163000
     78 HC2       -10.7600   -3.0160   -7.8640 ha        1 MYP      0.163500
     79 HC3        -8.5680   -3.7670   -6.9540 ha        1 MYP      0.155000
     80 HC5       -10.4430   -4.6280   -3.1490 ha        1 MYP      0.155000
     81 HC6       -12.6350   -3.8770   -4.0590 ha        1 MYP      0.163500
     82 CM         -7.2870   -3.3370   -3.6450 ce        1 MYP     -0.310100
     83 C10        -4.8400    0.9430   -5.9180 c3        1 MYP     -0.101100
     84 H22        -3.9670   -0.3930    1.4880 hn        1 MYP      0.474800
     85 H12        -3.6790   -2.3030   -2.4260 hn        1 MYP      0.482800
@<TRIPOS>BOND
     1    1    3 1   
     2    1    5 1   
     3    1    7 1   
     4    2    4 1   
     5    2    6 1   
     6    2    9 1   
     7    2   40 1   
     8    3    4 1   
     9    3   41 1   
    10    3   42 1   
    11    4   43 1   
    12    4   44 1   
    13    5    6 1   
    14    5   45 1   
    15    5   46 1   
    16    6   47 1   
    17    6   48 1   
    18    7    8 2   
    19    7   15 1   
    20    9   10 1   
    21    9   12 1   
    22   10   11 1   
    23   10   49 1   
    24   10   50 1   
    25   11   14 1   
    26   11   51 1   
    27   11   52 1   
    28   12   13 1   
    29   12   53 1   
    30   12   54 1   
    31   13   14 1   
    32   13   55 1   
    33   13   56 1   
    34   15   16 1   
    35   15   57 1   
    36   15   84 1   
    37   16   17 1   
    38   16   24 1   
    39   16   58 1   
    40   17   18 1   
    41   17   59 1   
    42   17   60 1   
    43   18   19 ar  
    44   18   20 ar  
    45   19   21 ar  
    46   19   61 1   
    47   20   22 ar  
    48   20   62 1   
    49   21   23 ar  
    50   21   63 1   
    51   22   23 ar  
    52   22   64 1   
    53   23   65 1   
    54   24   25 2   
    55   24   26 1   
    56   26   27 1   
    57   26   66 1   
    58   26   85 1   
    59   27   28 1   
    60   27   30 1   
    61   27   67 1   
    62   28   29 1   
    63   28   68 1   
    64   28   69 1   
    65   29   73 1   
    66   29   74 1   
    67   29   83 1   
    68   30   76 1   
    69   30   82 2   
    70   31   34 ar  
    71   31   35 ar  
    72   31   37 1   
    73   32   33 ar  
    74   32   36 ar  
    75   32   77 1   
    76   33   34 ar  
    77   33   78 1   
    78   34   79 1   
    79   35   36 ar  
    80   35   80 1   
    81   36   81 1   
    82   37   38 2   
    83   37   39 2   
    84   37   82 1   
    85   70   83 1   
    86   71   83 1   
    87   72   83 1   
    88   75   82 1   
@<TRIPOS>SUBSTRUCTURE
     1 MYP         1 TEMP              0 ****  ****    0 ROOT
