@<TRIPOS>MOLECULE
MYR
   43    42     1     0     0
SMALL
bcc


@<TRIPOS>ATOM
      1 C1          0.0100    0.0020    0.0590 c         1 MYR      0.907600
      2 O1          1.2750    0.0060    0.0730 o         1 MYR     -0.854800
      3 O2         -0.7030   -0.0060    1.1040 o         1 MYR     -0.854800
      4 C2         -0.7270    0.0050   -1.2920 c3        1 MYR     -0.193400
      5 C3          0.2220    0.0100   -2.4640 c3        1 MYR     -0.062400
      6 C4         -0.5140    0.0160   -3.7870 c3        1 MYR     -0.079400
      7 C5          0.4470    0.0210   -4.9570 c3        1 MYR     -0.078400
      8 C6         -0.2880    0.0270   -6.2800 c3        1 MYR     -0.078400
      9 C7          0.6750    0.0330   -7.4480 c3        1 MYR     -0.079400
     10 C8         -0.0600    0.0380   -8.7710 c3        1 MYR     -0.078400
     11 C9          0.9040    0.0440   -9.9380 c3        1 MYR     -0.079400
     12 C10         0.1680    0.0490  -11.2600 c3        1 MYR     -0.078400
     13 C11         1.1330    0.0550  -12.4270 c3        1 MYR     -0.079400
     14 C12         0.3980    0.0600  -13.7500 c3        1 MYR     -0.079400
     15 C13         1.3610    0.0670  -14.9170 c3        1 MYR     -0.080400
     16 C14         0.6330    0.0720  -16.2360 c3        1 MYR     -0.092100
     17 H21        -1.3870   -0.8970   -1.3320 hc        1 MYR      0.018700
     18 H22        -1.3880    0.9080   -1.3250 hc        1 MYR      0.018700
     19 H31         0.8900    0.9080   -2.3920 hc        1 MYR      0.044700
     20 H32         0.8900   -0.8890   -2.3990 hc        1 MYR      0.044700
     21 H41        -1.1790    0.9180   -3.8440 hc        1 MYR      0.024700
     22 H42        -1.1790   -0.8860   -3.8520 hc        1 MYR      0.024700
     23 H51         1.1100    0.9230   -4.8910 hc        1 MYR      0.036700
     24 H52         1.1110   -0.8810   -4.8990 hc        1 MYR      0.036700
     25 H61        -0.9530    0.9290   -6.3370 hc        1 MYR      0.033700
     26 H62        -0.9520   -0.8760   -6.3450 hc        1 MYR      0.033700
     27 H71         1.3380    0.9350   -7.3820 hc        1 MYR      0.037700
     28 H72         1.3400   -0.8690   -7.3900 hc        1 MYR      0.037700
     29 H81        -0.7250    0.9400   -8.8280 hc        1 MYR      0.036700
     30 H82        -0.7240   -0.8650   -8.8350 hc        1 MYR      0.036700
     31 H91         1.5680   -0.8590   -9.8800 hc        1 MYR      0.038700
     32 H92         1.5670    0.9460   -9.8720 hc        1 MYR      0.038700
     33 H101       -0.4960    0.9520  -11.3170 hc        1 MYR      0.037700
     34 H102       -0.4950   -0.8530  -11.3250 hc        1 MYR      0.037700
     35 H111        1.7960    0.9580  -12.3610 hc        1 MYR      0.038700
     36 H112        1.7980   -0.8470  -12.3690 hc        1 MYR      0.038700
     37 H121       -0.2670    0.9620  -13.8070 hc        1 MYR      0.038700
     38 H122       -0.2650   -0.8430  -13.8150 hc        1 MYR      0.038700
     39 H131        2.0240    0.9700  -14.8490 hc        1 MYR      0.037700
     40 H132        2.0260   -0.8350  -14.8570 hc        1 MYR      0.037700
     41 H141        1.3620    0.0760  -17.0830 hc        1 MYR      0.030700
     42 H142       -0.0140   -0.8340  -16.3330 hc        1 MYR      0.030700
     43 H143       -0.0160    0.9760  -16.3250 hc        1 MYR      0.030700
@<TRIPOS>BOND
     1    1    2 1   
     2    1    3 1   
     3    1    4 1   
     4    4    5 1   
     5    4   17 1   
     6    4   18 1   
     7    5    6 1   
     8    5   19 1   
     9    5   20 1   
    10    6    7 1   
    11    6   21 1   
    12    6   22 1   
    13    7    8 1   
    14    7   23 1   
    15    7   24 1   
    16    8    9 1   
    17    8   25 1   
    18    8   26 1   
    19    9   10 1   
    20    9   27 1   
    21    9   28 1   
    22   10   11 1   
    23   10   29 1   
    24   10   30 1   
    25   11   12 1   
    26   11   31 1   
    27   11   32 1   
    28   12   13 1   
    29   12   33 1   
    30   12   34 1   
    31   13   14 1   
    32   13   35 1   
    33   13   36 1   
    34   14   15 1   
    35   14   37 1   
    36   14   38 1   
    37   15   16 1   
    38   15   39 1   
    39   15   40 1   
    40   16   41 1   
    41   16   42 1   
    42   16   43 1   
@<TRIPOS>SUBSTRUCTURE
     1 MYR         1 TEMP              0 ****  ****    0 ROOT
