@<TRIPOS>MOLECULE
molecule
   43    42     1     0     0
SMALL
bcc


@<TRIPOS>ATOM
      1 C1           0.0000     0.0000     0.0000 c          1 MYR       0.890600
      2 O1           1.2080     0.0000     0.0000 o          1 MYR      -0.858300
      3 O2          -0.6700     0.0000     1.1630 o          1 MYR      -0.858300
      4 C2          -0.7550     0.0050    -1.3050 c3         1 MYR      -0.183400
      5 C3           0.2400     0.0110    -2.4680 c3         1 MYR      -0.063400
      6 C4          -0.5270     0.0160    -3.7920 c3         1 MYR      -0.088400
      7 C5           0.4670     0.0210    -4.9560 c3         1 MYR      -0.081400
      8 C6          -0.2980     0.0270    -6.2810 c3         1 MYR      -0.083400
      9 C7           0.6950     0.0330    -7.4440 c3         1 MYR      -0.082400
     10 C8          -0.0700     0.0380    -8.7690 c3         1 MYR      -0.082400
     11 C9           0.9240     0.0440    -9.9320 c3         1 MYR      -0.082400
     12 C10          0.1590     0.0490   -11.2560 c3         1 MYR      -0.082400
     13 C11          1.1520     0.0550   -12.4200 c3         1 MYR      -0.082400
     14 C12          0.3870     0.0600   -13.7450 c3         1 MYR      -0.081400
     15 C13          1.3810     0.0660   -14.9080 c3         1 MYR      -0.084400
     16 C14          0.6140     0.0720   -16.2330 c3         1 MYR      -0.092100
     17 H21         -1.3760    -0.8800    -1.3650 hc         1 MYR       0.026700
     18 H22         -1.3780     0.8890    -1.3580 hc         1 MYR       0.026700
     19 H31          0.8630    -0.8740    -2.4150 hc         1 MYR       0.044700
     20 H32          0.8620     0.8950    -2.4070 hc         1 MYR       0.044700
     21 H41         -1.1500     0.9010    -3.8460 hc         1 MYR       0.028700
     22 H42         -1.1500    -0.8680    -3.8530 hc         1 MYR       0.028700
     23 H51          1.0900    -0.8630    -4.9020 hc         1 MYR       0.038700
     24 H52          1.0900     0.9060    -4.8950 hc         1 MYR       0.038700
     25 H61         -0.9210     0.9110    -6.3340 hc         1 MYR       0.036200
     26 H62         -0.9200    -0.8580    -6.3420 hc         1 MYR       0.036200
     27 H71          1.3170     0.9180    -7.3840 hc         1 MYR       0.039700
     28 H72          1.3190    -0.8510    -7.3910 hc         1 MYR       0.039700
     29 H81         -0.6920    -0.8470    -8.8300 hc         1 MYR       0.038700
     30 H82         -0.6940     0.9220    -8.8220 hc         1 MYR       0.038700
     31 H91          1.5460     0.9280    -9.8710 hc         1 MYR       0.039700
     32 H92          1.5470    -0.8410    -9.8790 hc         1 MYR       0.039700
     33 H101        -0.4650     0.9340   -11.3090 hc         1 MYR       0.039700
     34 H102        -0.4640    -0.8350   -11.3170 hc         1 MYR       0.039700
     35 H111         1.7760    -0.8290   -12.3660 hc         1 MYR       0.040200
     36 H112         1.7740     0.9400   -12.3590 hc         1 MYR       0.040200
     37 H121        -0.2370     0.9440   -13.7990 hc         1 MYR       0.039700
     38 H122        -0.2350    -0.8250   -13.8060 hc         1 MYR       0.039700
     39 H131         2.0040    -0.8180   -14.8550 hc         1 MYR       0.039700
     40 H132         2.0030     0.9510   -14.8470 hc         1 MYR       0.039700
     41 H141        -0.0090     0.9560   -16.2860 hc         1 MYR       0.030367
     42 H142        -0.0080    -0.8130   -16.2940 hc         1 MYR       0.030367
     43 H143         1.3180     0.0760   -17.0570 hc         1 MYR       0.030367
@<TRIPOS>BOND
     1     1     2 1
     2     1     3 1
     3     1     4 1
     4     4     5 1
     5     4    17 1
     6     4    18 1
     7     5     6 1
     8     5    19 1
     9     5    20 1
    10     6     7 1
    11     6    21 1
    12     6    22 1
    13     7     8 1
    14     7    23 1
    15     7    24 1
    16     8     9 1
    17     8    25 1
    18     8    26 1
    19     9    10 1
    20     9    27 1
    21     9    28 1
    22    10    11 1
    23    10    29 1
    24    10    30 1
    25    11    12 1
    26    11    31 1
    27    11    32 1
    28    12    13 1
    29    12    33 1
    30    12    34 1
    31    13    14 1
    32    13    35 1
    33    13    36 1
    34    14    15 1
    35    14    37 1
    36    14    38 1
    37    15    16 1
    38    15    39 1
    39    15    40 1
    40    16    41 1
    41    16    42 1
    42    16    43 1
@<TRIPOS>SUBSTRUCTURE
     1 MYR         1 TEMP              0 ****  ****    0 ROOT
