@<TRIPOS>MOLECULE
molecule
   47    46     1     0     0
SMALL
bcc


@<TRIPOS>ATOM
      1 C1           0.0000     0.0000     0.0000 c3         1 MYS      -0.092100
      2 C2           1.5300     0.0000     0.0000 c3         1 MYS      -0.084400
      3 C3           2.0400     0.0000     1.4420 c3         1 MYS      -0.081400
      4 C4           3.5690     0.0000     1.4420 c3         1 MYS      -0.082400
      5 C5           4.0800     0.0000     2.8850 c3         1 MYS      -0.081400
      6 C6           5.6100     0.0000     2.8850 c3         1 MYS      -0.081400
      7 C7           6.1200     0.0000     4.3270 c3         1 MYS      -0.081400
      8 C8           7.6500     0.0000     4.3270 c3         1 MYS      -0.081400
      9 C9           8.1600     0.0000     5.7690 c3         1 MYS      -0.081400
     10 C10          9.6890     0.0000     5.7690 c3         1 MYS      -0.081400
     11 C11         10.1990     0.0000     7.2110 c3         1 MYS      -0.081400
     12 C12         11.7300     0.0000     7.2120 c3         1 MYS      -0.082400
     13 C13         12.2400     0.0000     8.6540 c3         1 MYS      -0.081400
     14 C14         13.7700     0.0000     8.6540 c3         1 MYS      -0.084400
     15 C15         14.2800     0.0000    10.0960 c3         1 MYS      -0.092100
     16 H11         -0.3610    -0.0000    -1.0210 hc         1 MYS       0.032367
     17 H12         -0.3610     0.8850     0.5110 hc         1 MYS       0.032367
     18 H13         -0.3610    -0.8840     0.5110 hc         1 MYS       0.032367
     19 H21          1.8910     0.8840    -0.5110 hc         1 MYS       0.039700
     20 H22          1.8910    -0.8840    -0.5110 hc         1 MYS       0.039700
     21 H31          1.6790     0.8840     1.9530 hc         1 MYS       0.040700
     22 H32          1.6790    -0.8840     1.9530 hc         1 MYS       0.040700
     23 H41          3.9300     0.8840     0.9310 hc         1 MYS       0.040700
     24 H42          3.9300    -0.8840     0.9310 hc         1 MYS       0.040700
     25 H51          3.7190     0.8840     3.3960 hc         1 MYS       0.040700
     26 H52          3.7190    -0.8840     3.3960 hc         1 MYS       0.040700
     27 H61          5.9710     0.8840     2.3740 hc         1 MYS       0.040700
     28 H62          5.9710    -0.8840     2.3740 hc         1 MYS       0.040700
     29 H71          5.7590     0.8840     4.8380 hc         1 MYS       0.040700
     30 H72          5.7590    -0.8840     4.8380 hc         1 MYS       0.040700
     31 H81          8.0110    -0.8840     3.8160 hc         1 MYS       0.040700
     32 H82          8.0110     0.8840     3.8160 hc         1 MYS       0.040700
     33 H91          7.7990    -0.8840     6.2800 hc         1 MYS       0.040700
     34 H92          7.7990     0.8840     6.2800 hc         1 MYS       0.040700
     35 H101        10.0500    -0.8840     5.2580 hc         1 MYS       0.040700
     36 H102        10.0500     0.8840     5.2580 hc         1 MYS       0.040700
     37 H111         9.8380     0.8840     7.7220 hc         1 MYS       0.040700
     38 H112         9.8380    -0.8840     7.7220 hc         1 MYS       0.040700
     39 H121        12.0910     0.8840     6.7010 hc         1 MYS       0.040700
     40 H122        12.0910    -0.8840     6.7010 hc         1 MYS       0.040700
     41 H131        11.8790     0.8840     9.1640 hc         1 MYS       0.040700
     42 H132        11.8790    -0.8840     9.1640 hc         1 MYS       0.040700
     43 H141        14.1310    -0.8840     8.1430 hc         1 MYS       0.039700
     44 H142        14.1310     0.8840     8.1430 hc         1 MYS       0.039700
     45 H151        15.3630     0.0000    10.0960 hc         1 MYS       0.032367
     46 H152        13.9190    -0.8850    10.6060 hc         1 MYS       0.032367
     47 H153        13.9190     0.8850    10.6060 hc         1 MYS       0.032367
@<TRIPOS>BOND
     1     1     2 1
     2     1    16 1
     3     1    17 1
     4     1    18 1
     5     2     3 1
     6     2    19 1
     7     2    20 1
     8     3     4 1
     9     3    21 1
    10     3    22 1
    11     4     5 1
    12     4    23 1
    13     4    24 1
    14     5     6 1
    15     5    25 1
    16     5    26 1
    17     6     7 1
    18     6    27 1
    19     6    28 1
    20     7     8 1
    21     7    29 1
    22     7    30 1
    23     8     9 1
    24     8    31 1
    25     8    32 1
    26     9    10 1
    27     9    33 1
    28     9    34 1
    29    10    11 1
    30    10    35 1
    31    10    36 1
    32    11    12 1
    33    11    37 1
    34    11    38 1
    35    12    13 1
    36    12    39 1
    37    12    40 1
    38    13    14 1
    39    13    41 1
    40    13    42 1
    41    14    15 1
    42    14    43 1
    43    14    44 1
    44    15    45 1
    45    15    46 1
    46    15    47 1
@<TRIPOS>SUBSTRUCTURE
     1 MYS         1 TEMP              0 ****  ****    0 ROOT
