@<TRIPOS>MOLECULE
MYS
   47    46     1     0     0
SMALL
bcc


@<TRIPOS>ATOM
      1 C1          0.0090   -0.0000   -0.0160 c3        1 MYS     -0.092100
      2 C2          1.5160    0.0000    0.0130 c3        1 MYS     -0.080400
      3 C3          2.0450   -0.0000    1.4310 c3        1 MYS     -0.079400
      4 C4          3.5580    0.0000    1.4550 c3        1 MYS     -0.079400
      5 C5          4.0860   -0.0000    2.8740 c3        1 MYS     -0.079400
      6 C6          5.5990    0.0000    2.8980 c3        1 MYS     -0.079400
      7 C7          6.1270   -0.0000    4.3170 c3        1 MYS     -0.079400
      8 C8          7.6400    0.0000    4.3410 c3        1 MYS     -0.079400
      9 C9          8.1670   -0.0000    5.7600 c3        1 MYS     -0.079400
     10 C10         9.6810    0.0000    5.7840 c3        1 MYS     -0.079400
     11 C11        10.2080   -0.0000    7.2030 c3        1 MYS     -0.079400
     12 C12        11.7210    0.0000    7.2270 c3        1 MYS     -0.079400
     13 C13        12.2480    0.0000    8.6460 c3        1 MYS     -0.079400
     14 C14        13.7620    0.0000    8.6710 c3        1 MYS     -0.080400
     15 C15        14.2910    0.0000   10.0820 c3        1 MYS     -0.092100
     16 H11        -0.3950    0.9050    0.4990 hc        1 MYS      0.032700
     17 H12        -0.3590    0.0000   -1.0700 hc        1 MYS      0.032700
     18 H13        -0.3950   -0.9050    0.4990 hc        1 MYS      0.032700
     19 H21         1.9030    0.9020   -0.5300 hc        1 MYS      0.038700
     20 H22         1.9030   -0.9020   -0.5300 hc        1 MYS      0.038700
     21 H31         1.6600    0.9020    1.9760 hc        1 MYS      0.039700
     22 H32         1.6600   -0.9020    1.9760 hc        1 MYS      0.039700
     23 H41         3.9430   -0.9020    0.9110 hc        1 MYS      0.039700
     24 H42         3.9430    0.9030    0.9110 hc        1 MYS      0.039700
     25 H51         3.7010   -0.9030    3.4180 hc        1 MYS      0.039700
     26 H52         3.7010    0.9020    3.4180 hc        1 MYS      0.039700
     27 H61         5.9840    0.9030    2.3540 hc        1 MYS      0.039700
     28 H62         5.9840   -0.9030    2.3540 hc        1 MYS      0.039700
     29 H71         5.7420   -0.9030    4.8610 hc        1 MYS      0.039700
     30 H72         5.7420    0.9020    4.8610 hc        1 MYS      0.039700
     31 H81         8.0250   -0.9020    3.7960 hc        1 MYS      0.039700
     32 H82         8.0250    0.9030    3.7970 hc        1 MYS      0.039700
     33 H91         7.7820   -0.9030    6.3040 hc        1 MYS      0.039700
     34 H92         7.7820    0.9020    6.3040 hc        1 MYS      0.039700
     35 H101       10.0650   -0.9020    5.2390 hc        1 MYS      0.039700
     36 H102       10.0650    0.9030    5.2390 hc        1 MYS      0.039700
     37 H111        9.8230    0.9020    7.7470 hc        1 MYS      0.039700
     38 H112        9.8230   -0.9030    7.7470 hc        1 MYS      0.039700
     39 H121       12.1060    0.9030    6.6830 hc        1 MYS      0.039700
     40 H122       12.1060   -0.9020    6.6830 hc        1 MYS      0.039700
     41 H131       11.8640   -0.9020    9.1900 hc        1 MYS      0.039700
     42 H132       11.8640    0.9020    9.1900 hc        1 MYS      0.039700
     43 H141       14.1450    0.9020    8.1250 hc        1 MYS      0.038700
     44 H142       14.1450   -0.9020    8.1250 hc        1 MYS      0.038700
     45 H151       13.9410    0.9050   10.6350 hc        1 MYS      0.032700
     46 H152       15.4080   -0.0000   10.0780 hc        1 MYS      0.032700
     47 H153       13.9410   -0.9050   10.6350 hc        1 MYS      0.032700
@<TRIPOS>BOND
     1    1    2 1   
     2    1   16 1   
     3    1   17 1   
     4    1   18 1   
     5    2    3 1   
     6    2   19 1   
     7    2   20 1   
     8    3    4 1   
     9    3   21 1   
    10    3   22 1   
    11    4    5 1   
    12    4   23 1   
    13    4   24 1   
    14    5    6 1   
    15    5   25 1   
    16    5   26 1   
    17    6    7 1   
    18    6   27 1   
    19    6   28 1   
    20    7    8 1   
    21    7   29 1   
    22    7   30 1   
    23    8    9 1   
    24    8   31 1   
    25    8   32 1   
    26    9   10 1   
    27    9   33 1   
    28    9   34 1   
    29   10   11 1   
    30   10   35 1   
    31   10   36 1   
    32   11   12 1   
    33   11   37 1   
    34   11   38 1   
    35   12   13 1   
    36   12   39 1   
    37   12   40 1   
    38   13   14 1   
    39   13   41 1   
    40   13   42 1   
    41   14   15 1   
    42   14   43 1   
    43   14   44 1   
    44   15   45 1   
    45   15   46 1   
    46   15   47 1   
@<TRIPOS>SUBSTRUCTURE
     1 MYS         1 TEMP              0 ****  ****    0 ROOT
