@<TRIPOS>MOLECULE
MYT
   31    32     1     0     0
SMALL
bcc


@<TRIPOS>ATOM
      1 N1         -0.1970   -0.0670   -0.1610 nb        1 MYT     -0.671000
      2 C2          1.1200    0.1940   -0.0680 ca        1 MYT      0.431200
      3 C3          1.8650    0.0310    1.1190 ca        1 MYT     -0.281900
      4 C4          1.1850   -0.4070    2.2670 ca        1 MYT     -0.046000
      5 C5         -0.1780   -0.6870    2.1840 ca        1 MYT     -0.257300
      6 C6         -0.8250   -0.5040    0.9480 ca        1 MYT      0.415200
      7 C7          3.3060    0.3410    1.2100 c         1 MYT      0.588700
      8 O8          3.7790    0.8240    2.2460 o         1 MYT     -0.524100
      9 C9          3.8760   -1.3610   -0.5210 c3        1 MYT     -0.087100
     10 C10         4.2110    0.0230    0.0150 c3        1 MYT     -0.086700
     11 C11         5.6670    0.0040    0.4910 c3        1 MYT     -0.087100
     12 C12         4.0610    1.1060   -1.0120 ca        1 MYT     -0.199600
     13 C13         4.2100    2.4590   -0.6180 ca        1 MYT      0.399200
     14 N14         4.1300    3.4990   -1.4640 nb        1 MYT     -0.657000
     15 C15         3.8960    3.2260   -2.7630 ca        1 MYT      0.395200
     16 C16         3.7320    1.9210   -3.2580 ca        1 MYT     -0.245300
     17 C17         3.8170    0.8500   -2.3660 ca        1 MYT     -0.092000
     18 H2          1.6050    0.5630   -0.9930 h4        1 MYT      0.034100
     19 H4          1.7320   -0.5170    3.2170 ha        1 MYT      0.156000
     20 H5         -0.7390   -1.0350    3.0600 ha        1 MYT      0.149000
     21 H6         -1.9050   -0.7120    0.8360 h4        1 MYT      0.026100
     22 H91         4.6150   -1.6570   -1.3040 hc        1 MYT      0.047700
     23 H92         3.9260   -2.1090    0.3080 hc        1 MYT      0.047700
     24 H93         2.8510   -1.3900   -0.9620 hc        1 MYT      0.047700
     25 H111        5.9370    0.9860    0.9480 hc        1 MYT      0.047700
     26 H112        6.3460   -0.2000   -0.3690 hc        1 MYT      0.047700
     27 H113        5.8010   -0.7930    1.2610 hc        1 MYT      0.047700
     28 H13         4.4010    2.7090    0.4440 h4        1 MYT      0.037100
     29 H15         3.8370    4.1010   -3.4350 h4        1 MYT      0.025100
     30 H16         3.5410    1.7500   -4.3260 ha        1 MYT      0.146000
     31 H17         3.6950   -0.1790   -2.7360 ha        1 MYT      0.143000
@<TRIPOS>BOND
     1    1    2 ar  
     2    1    6 ar  
     3    2    3 ar  
     4    2   18 1   
     5    3    4 ar  
     6    3    7 1   
     7    4    5 ar  
     8    4   19 1   
     9    5    6 ar  
    10    5   20 1   
    11    6   21 1   
    12    7    8 2   
    13    7   10 1   
    14    9   10 1   
    15    9   22 1   
    16    9   23 1   
    17    9   24 1   
    18   10   11 1   
    19   10   12 1   
    20   11   25 1   
    21   11   26 1   
    22   11   27 1   
    23   12   13 ar  
    24   12   17 ar  
    25   13   14 ar  
    26   13   28 1   
    27   14   15 ar  
    28   15   16 ar  
    29   15   29 1   
    30   16   17 ar  
    31   16   30 1   
    32   17   31 1   
@<TRIPOS>SUBSTRUCTURE
     1 MYT         1 TEMP              0 ****  ****    0 ROOT
