@<TRIPOS>MOLECULE
molecule
   31    32     1     0     0
SMALL
bcc


@<TRIPOS>ATOM
      1 N1           0.0000     0.0000     0.0000 nb         1 MYT      -0.697000
      2 C2           1.3170     0.0000     0.0000 ca         1 MYT       0.456200
      3 C3           2.0260     0.0000     1.2030 ca         1 MYT      -0.313900
      4 C4           1.3110     0.0140     2.4100 ca         1 MYT      -0.035000
      5 C5          -0.0700     0.0190     2.3540 ca         1 MYT      -0.269300
      6 C6          -0.6970     0.0130     1.1210 ca         1 MYT       0.447200
      7 C7           3.4980    -0.0060     1.2040 c          1 MYT       0.588700
      8 O8           4.1040     0.1200     2.2470 o          1 MYT      -0.516100
      9 C9           3.8270    -1.4770    -0.7640 c3         1 MYT      -0.076600
     10 C10          4.2510    -0.1700    -0.0900 c3         1 MYT      -0.108700
     11 C11          5.7530    -0.2080     0.1960 c3         1 MYT      -0.076600
     12 C12          3.9410     0.9890    -1.0010 ca         1 MYT      -0.209600
     13 C13          3.2040     2.0620    -0.5430 ca         1 MYT       0.418200
     14 N14          2.9350     3.0830    -1.3330 nb         1 MYT      -0.680000
     15 C15          3.3430     3.1160    -2.5850 ca         1 MYT       0.421200
     16 C16          4.0810     2.0750    -3.1160 ca         1 MYT      -0.252300
     17 C17          4.3890     0.9880    -2.3140 ca         1 MYT      -0.086000
     18 H2           1.8540    -0.0110    -0.9410 h4         1 MYT       0.040100
     19 H4           1.8280     0.0170     3.3620 ha         1 MYT       0.159000
     20 H5          -0.6550     0.0300     3.2650 ha         1 MYT       0.144000
     21 H6          -1.7800     0.0150     1.0740 h4         1 MYT       0.026100
     22 H91          3.0590    -1.2720    -1.5000 hc         1 MYT       0.046867
     23 H92          3.4390    -2.1590    -0.0170 hc         1 MYT       0.046867
     24 H93          4.6840    -1.9260    -1.2520 hc         1 MYT       0.046867
     25 H111         6.0610     0.7340     0.6350 hc         1 MYT       0.046867
     26 H112         5.9700    -1.0150     0.8840 hc         1 MYT       0.046867
     27 H113         6.2930    -0.3680    -0.7300 hc         1 MYT       0.046867
     28 H13          2.8520     2.0700     0.4820 h4         1 MYT       0.033100
     29 H15          3.1000     3.9710    -3.2050 h4         1 MYT       0.025100
     30 H16          4.4140     2.1090    -4.1470 ha         1 MYT       0.140000
     31 H17          4.9660     0.1570    -2.7020 ha         1 MYT       0.141000
@<TRIPOS>BOND
     1     1     2 ar
     2     1     6 ar
     3     2     3 ar
     4     2    18 1
     5     3     4 ar
     6     3     7 1
     7     4     5 ar
     8     4    19 1
     9     5     6 ar
    10     5    20 1
    11     6    21 1
    12     7     8 2
    13     7    10 1
    14     9    10 1
    15     9    22 1
    16     9    23 1
    17     9    24 1
    18    10    11 1
    19    10    12 1
    20    11    25 1
    21    11    26 1
    22    11    27 1
    23    12    13 ar
    24    12    17 ar
    25    13    14 ar
    26    13    28 1
    27    14    15 ar
    28    15    16 ar
    29    15    29 1
    30    16    17 ar
    31    16    30 1
    32    17    31 1
@<TRIPOS>SUBSTRUCTURE
     1 MYT         1 TEMP              0 ****  ****    0 ROOT
