@<TRIPOS>MOLECULE
MYU
   33    35     1     0     0
SMALL
bcc


@<TRIPOS>ATOM
      1 O20        -0.1000   -0.8320    0.0020 o         1 MYU     -0.531100
      2 C11         1.0990   -0.5210   -0.0180 c         1 MYU      0.582900
      3 C12         1.8710   -0.4630    1.2420 cc        1 MYU     -0.063100
      4 O19         1.2120   -0.7800    2.4090 oh        1 MYU     -0.491100
      5 C10         1.8730   -0.1840   -1.2060 ca        1 MYU     -0.255600
      6 C13         1.3080   -0.1920   -2.5030 ca        1 MYU      0.231100
      7 O21        -0.0070   -0.5310   -2.6230 oh        1 MYU     -0.449100
      8 C9          3.2300    0.1660   -1.0770 ca        1 MYU      0.199100
      9 C16         4.0300    0.5020   -2.1800 ca        1 MYU     -0.258000
     10 C15         3.4490    0.4880   -3.4500 ca        1 MYU      0.153100
     11 O22         4.1430    0.7980   -4.5940 oh        1 MYU     -0.505100
     12 C14         2.0950    0.1440   -3.6220 ca        1 MYU     -0.034900
     13 O23         1.4620    0.1260   -4.8490 oh        1 MYU     -0.511100
     14 O8          3.8940    0.2070    0.1320 os        1 MYU     -0.212200
     15 C7          3.1850   -0.1100    1.2890 cd        1 MYU      0.133900
     16 C6          4.0420   -0.0000    2.4670 ca        1 MYU     -0.050800
     17 C5          5.1280    0.8880    2.4510 ca        1 MYU     -0.101000
     18 C4          5.9470    1.0010    3.5780 ca        1 MYU      0.100100
     19 O17         6.9970    1.8860    3.5090 oh        1 MYU     -0.494100
     20 C3          5.6760    0.2210    4.7240 ca        1 MYU      0.058100
     21 O18         6.5300    0.3910    5.7930 oh        1 MYU     -0.514100
     22 C2          4.5960   -0.6650    4.7320 ca        1 MYU     -0.180000
     23 C1          3.7830   -0.7750    3.6060 ca        1 MYU     -0.086000
     24 HO19        0.2720   -0.9060    2.1830 ho        1 MYU      0.446000
     25 HO21       -0.2490   -0.4960   -3.5640 ho        1 MYU      0.446000
     26 H16         5.0860    0.7660   -2.0350 ha        1 MYU      0.164000
     27 HO22        5.0570    1.0040   -4.3470 ho        1 MYU      0.441000
     28 HO23        2.1340    0.2820   -5.5290 ho        1 MYU      0.447000
     29 H5          5.3460    1.4980    1.5620 ha        1 MYU      0.164000
     30 HO17        7.4580    1.8690    4.3620 ho        1 MYU      0.437000
     31 HO18        6.2230   -0.1780    6.5130 ho        1 MYU      0.432000
     32 H2          4.3870   -1.2720    5.6250 ha        1 MYU      0.140000
     33 H1          2.9310   -1.4740    3.6170 ha        1 MYU      0.163000
@<TRIPOS>BOND
     1    1    2 2   
     2    2    3 1   
     3    2    5 1   
     4    3    4 1   
     5    3   15 2   
     6    4   24 1   
     7    5    6 ar  
     8    5    8 ar  
     9    6    7 1   
    10    6   12 ar  
    11    7   25 1   
    12    8    9 ar  
    13    8   14 1   
    14    9   10 ar  
    15    9   26 1   
    16   10   11 1   
    17   10   12 ar  
    18   11   27 1   
    19   12   13 1   
    20   13   28 1   
    21   14   15 1   
    22   15   16 1   
    23   16   17 ar  
    24   16   23 ar  
    25   17   18 ar  
    26   17   29 1   
    27   18   19 1   
    28   18   20 ar  
    29   19   30 1   
    30   20   21 1   
    31   20   22 ar  
    32   21   31 1   
    33   22   23 ar  
    34   22   32 1   
    35   23   33 1   
@<TRIPOS>SUBSTRUCTURE
     1 MYU         1 TEMP              0 ****  ****    0 ROOT
