@<TRIPOS>MOLECULE
molecule
   67    68     1     0     0
SMALL
bcc


@<TRIPOS>ATOM
      1 O1           0.0000     0.0000     0.0000 o          1 MYX      -0.487100
      2 C1           1.2170     0.0000     0.0000 c          1 MYX       0.517300
      3 N1           1.8910     0.0000     1.1670 nz         1 MYX      -0.670400
      4 C2           1.9250    -0.0070    -1.2280 ce         1 MYX      -0.514200
      5 C3           1.2570    -0.1110    -2.3900 c2         1 MYX       0.323900
      6 O2           1.8960     0.1020    -3.5570 os         1 MYX      -0.247900
      7 C4           3.3060     0.4400    -3.4840 c3         1 MYX       0.109700
      8 C5          -0.2080    -0.4660    -2.3870 c3         1 MYX      -0.053500
      9 C6          -0.5080    -1.4020    -3.5590 c3         1 MYX      -0.090100
     10 C7          -1.0420     0.8090    -2.5240 c3         1 MYX       0.197300
     11 O3          -0.8160     1.3890    -3.8120 os         1 MYX      -0.419600
     12 C8          -0.9420     2.8120    -3.8380 c3         1 MYX       0.126700
     13 C9          -2.5030     0.4720    -2.3750 c2         1 MYX      -0.186200
     14 C10         -3.2150     1.0260    -1.4040 ce         1 MYX      -0.183800
     15 C11         -4.6480     0.6960    -1.2580 cc         1 MYX       0.405100
     16 C12         -5.4170     1.2320    -0.2870 cd         1 MYX      -0.190400
     17 N2          -5.2680    -0.1420    -2.0720 nc         1 MYX      -0.691000
     18 C13         -6.5300    -0.3580    -1.8490 cd         1 MYX       0.462400
     19 C14         -7.3970    -1.2560    -2.6400 cd         1 MYX       0.325300
     20 C15         -6.9510    -1.9600    -3.7030 cc         1 MYX      -0.148400
     21 N3          -8.6810    -1.4470    -2.3680 nd         1 MYX      -0.686000
     22 C16         -9.3300    -2.2550    -3.1320 cc         1 MYX       0.473700
     23 C17        -10.7890    -2.5960    -2.9780 c3         1 MYX      -0.059800
     24 C18        -11.5430    -2.1970    -4.2490 c3         1 MYX      -0.089100
     25 C19        -10.9380    -4.0780    -2.7500 c2         1 MYX      -0.189200
     26 C20        -11.5050    -4.5260    -1.6360 ce         1 MYX      -0.106000
     27 C21        -11.6500    -5.9730    -1.4130 ce         1 MYX      -0.159000
     28 C22        -12.2170    -6.4200    -0.2980 c2         1 MYX      -0.139200
     29 C23        -12.3650    -7.9020    -0.0700 c3         1 MYX      -0.046500
     30 C24        -11.6120    -8.3010     1.2000 c3         1 MYX      -0.084100
     31 C25        -13.8480    -8.2490     0.0850 c3         1 MYX      -0.084100
     32 S1          -7.0480     0.5870    -0.4570 ss         1 MYX      -0.138300
     33 S2          -8.3040    -2.8890    -4.3430 ss         1 MYX      -0.172300
     34 HN11         1.7550    -0.8760     1.6310 hn         1 MYX       0.471133
     35 HN12         2.8670     0.1350     0.9890 hn         1 MYX       0.471133
     36 H2           2.9780     0.2470    -1.2370 ha         1 MYX       0.154000
     37 H41          3.6880     0.6160    -4.4830 h1         1 MYX       0.065033
     38 H42          3.8510    -0.3780    -3.0280 h1         1 MYX       0.065033
     39 H43          3.4320     1.3350    -2.8870 h1         1 MYX       0.065033
     40 H5          -0.4580    -0.9620    -1.4560 hc         1 MYX       0.112700
     41 H61         -1.4650    -1.8840    -3.4000 hc         1 MYX       0.061033
     42 H62         -0.5390    -0.8310    -4.4780 hc         1 MYX       0.061033
     43 H63          0.2680    -2.1550    -3.6270 hc         1 MYX       0.061033
     44 H7          -0.7530     1.5140    -1.7550 h1         1 MYX       0.033700
     45 H81         -0.2970     3.2170    -4.6090 h1         1 MYX       0.038367
     46 H82         -0.6530     3.2180    -2.8760 h1         1 MYX       0.038367
     47 H83         -1.9700     3.0790    -4.0500 h1         1 MYX       0.038367
     48 H9          -2.9720    -0.2230    -3.0620 ha         1 MYX       0.170000
     49 H10         -2.7470     1.7210    -0.7180 ha         1 MYX       0.124000
     50 H12         -5.0870     1.9360     0.4680 h4         1 MYX       0.179000
     51 H15         -5.9310    -1.9860    -4.0680 h4         1 MYX       0.193000
     52 H17        -11.1980    -2.0580    -2.1310 hc         1 MYX       0.086700
     53 H181       -12.5540    -1.9050    -3.9930 hc         1 MYX       0.046367
     54 H182       -11.5710    -3.0380    -4.9310 hc         1 MYX       0.046367
     55 H183       -11.0360    -1.3650    -4.7230 hc         1 MYX       0.046367
     56 H19        -10.5820    -4.7790    -3.4960 ha         1 MYX       0.132000
     57 H20        -11.8600    -3.8250    -0.8900 ha         1 MYX       0.130000
     58 H21        -11.2950    -6.6740    -2.1590 ha         1 MYX       0.130000
     59 H22        -12.5720    -5.7190     0.4480 ha         1 MYX       0.128000
     60 H23        -11.9560    -8.4400    -0.9170 hc         1 MYX       0.053700
     61 H241       -10.5640    -8.0490     1.0920 hc         1 MYX       0.037200
     62 H242       -11.7120    -9.3680     1.3590 hc         1 MYX       0.037200
     63 H243       -12.0260    -7.7690     2.0480 hc         1 MYX       0.037200
     64 H251       -14.2530    -7.7270     0.9440 hc         1 MYX       0.037200
     65 H252       -14.3840    -7.9470    -0.8060 hc         1 MYX       0.037200
     66 H253       -13.9560    -9.3170     0.2280 hc         1 MYX       0.037200
     67 H13          1.5500     0.7390     1.7500 hn         1 MYX       0.471133
@<TRIPOS>BOND
     1     1     2 2
     2     2     3 1
     3     2     4 1
     4     3    34 1
     5     3    35 1
     6     4     5 2
     7     4    36 1
     8     5     6 1
     9     5     8 1
    10     6     7 1
    11     7    37 1
    12     7    38 1
    13     7    39 1
    14     8     9 1
    15     8    10 1
    16     8    40 1
    17     9    41 1
    18     9    42 1
    19     9    43 1
    20    10    11 1
    21    10    13 1
    22    10    44 1
    23    11    12 1
    24    12    45 1
    25    12    46 1
    26    12    47 1
    27    13    14 2
    28    13    48 1
    29    14    15 1
    30    14    49 1
    31    15    16 2
    32    15    17 1
    33    16    32 1
    34    16    50 1
    35    17    18 2
    36    18    19 1
    37    18    32 1
    38    19    20 2
    39    19    21 1
    40    20    33 1
    41    20    51 1
    42    21    22 2
    43    22    23 1
    44    22    33 1
    45    23    24 1
    46    23    25 1
    47    23    52 1
    48    24    53 1
    49    24    54 1
    50    24    55 1
    51    25    26 2
    52    25    56 1
    53    26    27 1
    54    26    57 1
    55    27    28 2
    56    27    58 1
    57    28    29 1
    58    28    59 1
    59    29    30 1
    60    29    31 1
    61    29    60 1
    62    30    61 1
    63    30    62 1
    64    30    63 1
    65    31    64 1
    66    31    65 1
    67    31    66 1
    68    67     3 1
@<TRIPOS>SUBSTRUCTURE
     1 MYX         1 TEMP              0 ****  ****    0 ROOT
