@<TRIPOS>MOLECULE
MYX
   67    76     1     0     0
SMALL
bcc


@<TRIPOS>ATOM
      1 O1           0.0000     0.0000     0.0000 o          1 MYX      -0.329000
      2 C1           1.2170     0.0000     0.0000 c3         1 MYX       0.091000
      3 N1           1.8910     0.0000     1.1670 nz         1 MYX       0.835000
      4 C2           1.9250    -0.0070    -1.2280 c2         1 MYX      -0.630000
      5 C3           1.2570    -0.1110    -2.3900 c2         1 MYX       0.415000
      6 O2           1.8960     0.1020    -3.5570 os         1 MYX      -0.074000
      7 C4           3.3060     0.4400    -3.4840 c3         1 MYX       0.062000
      8 C5          -0.2080    -0.4660    -2.3870 c3         1 MYX      -0.182000
      9 C6          -0.5080    -1.4020    -3.5590 c3         1 MYX      -0.111000
     10 C7          -1.0420     0.8090    -2.5240 DU         1 MYX       0.189000
     11 O3          -0.8160     1.3890    -3.8120 os         1 MYX      -0.282000
     12 C8          -0.9420     2.8120    -3.8380 c3         1 MYX       0.059000
     13 C9          -2.5030     0.4720    -2.3750 c2         1 MYX      -0.045000
     14 C10         -3.2150     1.0260    -1.4040 c2         1 MYX      -0.094000
     15 C11         -4.6480     0.6960    -1.2580 c3         1 MYX      -0.004000
     16 C12         -5.4170     1.2320    -0.2870 c2         1 MYX      -0.399000
     17 N2          -5.2680    -0.1420    -2.0720 n2         1 MYX      -0.085000
     18 C13         -6.5300    -0.3580    -1.8490 c2         1 MYX      -0.094000
     19 C14         -7.3970    -1.2560    -2.6400 c2         1 MYX      -0.056000
     20 C15         -6.9510    -1.9600    -3.7030 c2         1 MYX      -0.286000
     21 N3          -8.6810    -1.4470    -2.3680 n2         1 MYX      -0.036000
     22 C16         -9.3300    -2.2550    -3.1320 c2         1 MYX      -0.209000
     23 C17        -10.7890    -2.5960    -2.9780 DU         1 MYX       0.035000
     24 C18        -11.5430    -2.1970    -4.2490 c3         1 MYX      -0.153000
     25 C19        -10.9380    -4.0780    -2.7500 c2         1 MYX      -0.496000
     26 C20        -11.5050    -4.5260    -1.6360 c3         1 MYX      -0.073000
     27 C21        -11.6500    -5.9730    -1.4130 c3         1 MYX      -0.081000
     28 C22        -12.2170    -6.4200    -0.2980 c2         1 MYX      -0.466000
     29 C23        -12.3650    -7.9020    -0.0700 DU         1 MYX      -0.051000
     30 C24        -11.6120    -8.3010     1.2000 c3         1 MYX      -0.122500
     31 C25        -13.8480    -8.2490     0.0850 c3         1 MYX      -0.122500
     32 S1          -7.0480     0.5870    -0.4570 ss         1 MYX       0.320000
     33 S2          -8.3040    -2.8890    -4.3430 ss         1 MYX       0.334000
     34 HN11         1.2410     0.0090     1.9280 hn         1 MYX       0.036333
     35 HN12         2.4600    -0.8210     1.2240 hn         1 MYX       0.036333
     36 H2           1.6720    -0.9470    -0.7540 DU         1 MYX       0.147000
     37 H41          3.8460    -0.3640    -3.0000 h1         1 MYX       0.067333
     38 H42          3.6950     0.5850    -4.4850 h1         1 MYX       0.067333
     39 H43          3.4300     1.3530    -2.9140 h1         1 MYX       0.067333
     40 H5          -0.4580    -0.9620    -1.4560 hc         1 MYX       0.145000
     41 H61          0.1360    -2.2720    -3.5000 hc         1 MYX       0.069000
     42 H62         -1.5440    -1.7160    -3.5140 hc         1 MYX       0.069000
     43 H63         -0.3280    -0.8820    -4.4920 hc         1 MYX       0.069000
     44 H7          -0.7530     1.5140    -1.7550 ha         1 MYX       0.083000
     45 H81         -1.9380     3.0800    -4.1690 h1         1 MYX       0.042000
     46 H82         -0.7720     3.2080    -2.8440 h1         1 MYX       0.042000
     47 H83         -0.2100     3.2260    -4.5220 h1         1 MYX       0.042000
     48 H9          -2.1280     1.3850    -2.8210 DU         1 MYX       0.016000
     49 H10         -4.0040     1.4400    -2.0200 DU         1 MYX       0.096000
     50 H12         -5.0870     1.9360     0.4680 h4         1 MYX       0.167000
     51 H15         -5.9560    -1.9100    -4.1280 h4         1 MYX       0.168000
     52 H17        -11.1980    -2.0580    -2.1310 ha         1 MYX       0.094000
     53 H181       -12.5660    -1.9440    -3.9980 hc         1 MYX       0.065667
     54 H182       -11.0590    -1.3390    -4.7010 hc         1 MYX       0.065667
     55 H183       -11.5370    -3.0250    -4.9480 hc         1 MYX       0.065667
     56 H19        -11.7400    -3.4250    -3.0700 DU         1 MYX       0.231000
     57 H20        -10.7010    -5.1790    -1.3180 DU         1 MYX       0.254500
     58 H21        -10.8880    -5.3570    -0.9510 DU         1 MYX       0.254500
     59 H22        -12.9800    -7.0360    -0.7580 DU         1 MYX       0.253000
     60 H23        -11.9560    -8.4400    -0.9170 ha         1 MYX       0.073000
     61 H241       -10.5530    -8.1180     1.0640 hc         1 MYX       0.052667
     62 H242       -11.7730    -9.3540     1.4000 hc         1 MYX       0.052667
     63 H243       -11.9760    -7.7150     2.0350 hc         1 MYX       0.052667
     64 H251       -14.3440    -8.1490    -0.8720 hc         1 MYX       0.052667
     65 H252       -13.9450    -9.2680     0.4380 hc         1 MYX       0.052667
     66 H253       -14.3030    -7.5740     0.8000 hc         1 MYX       0.052667
     67 H13          2.4770     0.8100     1.2140 hn         1 MYX       0.036333
@<TRIPOS>BOND
     1     1     2 1   
     2     2     3 1   
     3     2     4 1   
     4     2    36 1   
     5     3    34 1   
     6     3    35 1   
     7     3    67 1   
     8     4     5 1   
     9     4    36 1   
    10     5     6 1   
    11     5     8 1   
    12     6     7 1   
    13     7    37 1   
    14     7    38 1   
    15     7    39 1   
    16     8     9 1   
    17     8    10 1   
    18     8    40 1   
    19     9    41 1   
    20     9    42 1   
    21     9    43 1   
    22    10    11 1   
    23    10    13 1   
    24    10    44 1   
    25    10    48 1   
    26    11    12 1   
    27    12    45 1   
    28    12    46 1   
    29    12    47 1   
    30    13    14 1   
    31    13    48 1   
    32    14    15 1   
    33    14    49 1   
    34    15    16 1   
    35    15    17 1   
    36    15    49 1   
    37    16    32 1   
    38    16    50 1   
    39    17    18 1   
    40    18    19 1   
    41    18    32 1   
    42    19    20 1   
    43    19    21 1   
    44    20    33 1   
    45    20    51 1   
    46    21    22 1   
    47    22    23 1   
    48    22    33 1   
    49    23    24 1   
    50    23    25 1   
    51    23    52 1   
    52    23    56 1   
    53    24    53 1   
    54    24    54 1   
    55    24    55 1   
    56    25    26 1   
    57    25    56 1   
    58    26    27 1   
    59    26    57 1   
    60    26    58 1   
    61    27    28 1   
    62    27    57 1   
    63    27    58 1   
    64    28    29 1   
    65    28    59 1   
    66    29    30 1   
    67    29    31 1   
    68    29    59 1   
    69    29    60 1   
    70    30    61 1   
    71    30    62 1   
    72    30    63 1   
    73    31    64 1   
    74    31    65 1   
    75    31    66 1   
    76    57    58 1   
@<TRIPOS>SUBSTRUCTURE
     1 MYX         1 TEMP              0 ****  ****    0 ROOT
