@<TRIPOS>MOLECULE
MYY
  105   104     1     0     0
SMALL
bcc


@<TRIPOS>ATOM
      1 C38        -0.0300   -0.5750    0.4460 c3        1 MYY     -0.091100
      2 C37         1.4470   -0.2810    0.3990 c3        1 MYY     -0.080400
      3 C36         2.0660   -0.3190    1.7800 c3        1 MYY     -0.079400
      4 C35         3.5500   -0.0220    1.7280 c3        1 MYY     -0.078400
      5 C34         4.1680   -0.0610    3.1080 c3        1 MYY     -0.079400
      6 C33         5.6510    0.2340    3.0560 c3        1 MYY     -0.078400
      7 C32         6.2700    0.1950    4.4370 c3        1 MYY     -0.079400
      8 C31         7.7540    0.4910    4.3850 c3        1 MYY     -0.078400
      9 C30         8.3730    0.4510    5.7660 c3        1 MYY     -0.079400
     10 C29         9.8570    0.7450    5.7150 c3        1 MYY     -0.078400
     11 C28        10.4780    0.7050    7.0960 c3        1 MYY     -0.079400
     12 C27        11.9630    0.9950    7.0470 c3        1 MYY     -0.078400
     13 C26        12.5860    0.9530    8.4270 c3        1 MYY     -0.084400
     14 C25        14.0820    1.2400    8.3800 c3        1 MYY      0.076800
     15 C24        14.6860    1.2360    9.7110 c2        1 MYY     -0.601200
     16 C23        15.7080    0.3630   10.0390 c2        1 MYY      0.432100
     17 O10        16.3040   -0.5350    9.3800 o         1 MYY     -0.574000
     18 O8         16.1770    0.5020   11.3680 os        1 MYY     -0.477900
     19 C6         17.2490   -0.3510   11.7290 c3        1 MYY      0.150400
     20 C5         17.7060   -0.0460   13.1550 c3        1 MYY      0.121100
     21 C4         16.5630    0.0220   14.1840 c3        1 MYY      0.192400
     22 O6         16.8920   -0.7310   15.3140 os        1 MYY     -0.592200
     23 P          16.9540    0.0420   16.7650 p5        1 MYY      1.438800
     24 O4         15.3800    0.4820   16.8520 oh        1 MYY     -0.784400
     25 O3         17.0700   -1.0000   17.8080 o         1 MYY     -0.848500
     26 O5         17.7960    1.2510   16.6580 o         1 MYY     -0.848500
     27 O7         18.3290    1.2570   13.1890 os        1 MYY     -0.405900
     28 C7         19.6780    1.3410   13.2550 c         1 MYY      0.648100
     29 O9         20.3900    0.3560   13.0210 o         1 MYY     -0.592000
     30 C8         20.1420    2.7250   13.6180 c3        1 MYY     -0.121400
     31 C9         20.1910    2.8580   15.1270 c3        1 MYY     -0.111400
     32 C10        20.4150    4.2950   15.5430 c3        1 MYY     -0.061400
     33 C11        20.4000    4.4150   17.0520 c3        1 MYY     -0.086400
     34 C12        20.5190    5.8580   17.4940 c3        1 MYY     -0.075400
     35 C13        20.5090    5.9720   19.0030 c3        1 MYY     -0.080400
     36 C14        20.6160    7.4140   19.4490 c3        1 MYY     -0.077400
     37 C15        20.6050    7.5260   20.9590 c3        1 MYY     -0.079400
     38 C16        20.7100    8.9680   21.4070 c3        1 MYY     -0.078400
     39 C17        20.6990    9.0780   22.9160 c3        1 MYY     -0.079400
     40 C18        20.8040   10.5200   23.3640 c3        1 MYY     -0.078400
     41 C19        20.7920   10.6320   24.8740 c3        1 MYY     -0.081400
     42 C20        20.8960   12.0650   25.3250 c3        1 MYY     -0.091100
     43 H381       -0.5620    0.1750    1.0790 hc        1 MYY      0.029700
     44 H382       -0.4670   -0.5420   -0.5820 hc        1 MYY      0.029700
     45 H383       -0.2160   -1.5890    0.8760 hc        1 MYY      0.029700
     46 H371        1.6150    0.7300   -0.0580 hc        1 MYY      0.037200
     47 H372        1.9600   -1.0300   -0.2610 hc        1 MYY      0.037200
     48 H361        1.9010   -1.3300    2.2370 hc        1 MYY      0.038700
     49 H362        1.5560    0.4300    2.4410 hc        1 MYY      0.038700
     50 H351        4.0600   -0.7720    1.0660 hc        1 MYY      0.038200
     51 H352        3.7150    0.9880    1.2700 hc        1 MYY      0.038200
     52 H341        4.0020   -1.0720    3.5670 hc        1 MYY      0.038700
     53 H342        3.6580    0.6880    3.7700 hc        1 MYY      0.038700
     54 H331        5.8170    1.2450    2.5990 hc        1 MYY      0.037200
     55 H332        6.1610   -0.5150    2.3950 hc        1 MYY      0.037200
     56 H321        5.7610    0.9450    5.0990 hc        1 MYY      0.038200
     57 H322        6.1040   -0.8150    4.8950 hc        1 MYY      0.038200
     58 H311        8.2630   -0.2590    3.7240 hc        1 MYY      0.036200
     59 H312        7.9200    1.5010    3.9280 hc        1 MYY      0.036200
     60 H301        7.8650    1.2010    6.4280 hc        1 MYY      0.037700
     61 H302        8.2070   -0.5590    6.2240 hc        1 MYY      0.037700
     62 H291       10.3660   -0.0050    5.0540 hc        1 MYY      0.033200
     63 H292       10.0250    1.7550    5.2580 hc        1 MYY      0.033200
     64 H281       10.3100   -0.3050    7.5540 hc        1 MYY      0.034700
     65 H282        9.9700    1.4550    7.7570 hc        1 MYY      0.034700
     66 H271       12.4700    0.2450    6.3860 hc        1 MYY      0.025700
     67 H272       12.1310    2.0050    6.5890 hc        1 MYY      0.025700
     68 H261       12.4210   -0.0560    8.8850 hc        1 MYY      0.028200
     69 H262       12.0840    1.7050    9.0890 hc        1 MYY      0.028200
     70 H251       14.2180    2.2430    7.8790 hc        1 MYY     -0.008800
     71 H252       14.5780    0.4760    7.7210 hc        1 MYY     -0.008800
     72 H241       14.3180    1.9470   10.4510 ha        1 MYY      0.099000
     73 H242       14.8510   -0.1910   17.2610 ho        1 MYY      0.419000
     74 H6C1       16.9110   -1.4210   11.6770 h1        1 MYY      0.030700
     75 H6C2       18.1060   -0.2070   11.0180 h1        1 MYY      0.030700
     76 H5         18.4510   -0.8320   13.4610 h1        1 MYY      0.074700
     77 H4C1       15.6430   -0.4220   13.7110 h1        1 MYY      0.051200
     78 H4C2       16.3650    1.0910   14.4710 h1        1 MYY      0.051200
     79 H8C1       21.1520    2.8950   13.1670 hc        1 MYY      0.052200
     80 H8C2       19.4250    3.4730   13.1880 hc        1 MYY      0.052200
     81 H9C1       21.0130    2.2130   15.5330 hc        1 MYY      0.097700
     82 H9C2       19.2220    2.4750   15.5740 hc        1 MYY      0.097700
     83 H101       21.3930    4.6690   15.1400 hc        1 MYY      0.019200
     84 H102       19.6080    4.9420   15.1080 hc        1 MYY      0.019200
     85 H111       19.4460    3.9690   17.4450 hc        1 MYY      0.059200
     86 H112       21.2450    3.8180   17.4840 hc        1 MYY      0.059200
     87 H121       21.4670    6.3020   17.0890 hc        1 MYY      0.027700
     88 H122       19.6680    6.4520   17.0670 hc        1 MYY      0.027700
     89 H131       19.5630    5.5210   19.4040 hc        1 MYY      0.043200
     90 H132       21.3630    5.3820   19.4300 hc        1 MYY      0.043200
     91 H141       19.7600    8.0030   19.0230 hc        1 MYY      0.033700
     92 H142       21.5600    7.8650   19.0460 hc        1 MYY      0.033700
     93 H151       19.6600    7.0740   21.3610 hc        1 MYY      0.040200
     94 H152       21.4590    6.9370   21.3850 hc        1 MYY      0.040200
     95 H161       19.8550    9.5560   20.9800 hc        1 MYY      0.036200
     96 H162       21.6550    9.4190   21.0030 hc        1 MYY      0.036200
     97 H171       19.7530    8.6270   23.3180 hc        1 MYY      0.039700
     98 H172       21.5530    8.4890   23.3420 hc        1 MYY      0.039700
     99 H181       19.9490   11.1090   22.9380 hc        1 MYY      0.037200
    100 H182       21.7490   10.9720   22.9620 hc        1 MYY      0.037200
    101 H191       19.8470   10.1780   25.2740 hc        1 MYY      0.038200
    102 H192       21.6460   10.0400   25.2980 hc        1 MYY      0.038200
    103 H201       21.8440   12.5270   24.9560 hc        1 MYY      0.028367
    104 H202       20.8860   12.1250   26.4400 hc        1 MYY      0.028367
    105 H203       20.0400   12.6650   24.9320 hc        1 MYY      0.028367
@<TRIPOS>BOND
     1    1    2 1   
     2    1   43 1   
     3    1   44 1   
     4    1   45 1   
     5    2    3 1   
     6    2   46 1   
     7    2   47 1   
     8    3    4 1   
     9    3   48 1   
    10    3   49 1   
    11    4    5 1   
    12    4   50 1   
    13    4   51 1   
    14    5    6 1   
    15    5   52 1   
    16    5   53 1   
    17    6    7 1   
    18    6   54 1   
    19    6   55 1   
    20    7    8 1   
    21    7   56 1   
    22    7   57 1   
    23    8    9 1   
    24    8   58 1   
    25    8   59 1   
    26    9   10 1   
    27    9   60 1   
    28    9   61 1   
    29   10   11 1   
    30   10   62 1   
    31   10   63 1   
    32   11   12 1   
    33   11   64 1   
    34   11   65 1   
    35   12   13 1   
    36   12   66 1   
    37   12   67 1   
    38   13   14 1   
    39   13   68 1   
    40   13   69 1   
    41   14   15 1   
    42   14   70 1   
    43   14   71 1   
    44   15   16 2   
    45   15   72 1   
    46   16   17 1   
    47   16   18 1   
    48   18   19 1   
    49   19   20 1   
    50   19   74 1   
    51   19   75 1   
    52   20   21 1   
    53   20   27 1   
    54   20   76 1   
    55   21   22 1   
    56   21   77 1   
    57   21   78 1   
    58   22   23 1   
    59   23   24 1   
    60   23   25 1   
    61   23   26 1   
    62   24   73 1   
    63   27   28 1   
    64   28   29 2   
    65   28   30 1   
    66   30   31 1   
    67   30   79 1   
    68   30   80 1   
    69   31   32 1   
    70   31   81 1   
    71   31   82 1   
    72   32   33 1   
    73   32   83 1   
    74   32   84 1   
    75   33   34 1   
    76   33   85 1   
    77   33   86 1   
    78   34   35 1   
    79   34   87 1   
    80   34   88 1   
    81   35   36 1   
    82   35   89 1   
    83   35   90 1   
    84   36   37 1   
    85   36   91 1   
    86   36   92 1   
    87   37   38 1   
    88   37   93 1   
    89   37   94 1   
    90   38   39 1   
    91   38   95 1   
    92   38   96 1   
    93   39   40 1   
    94   39   97 1   
    95   39   98 1   
    96   40   41 1   
    97   40   99 1   
    98   40  100 1   
    99   41   42 1   
   100   41  101 1   
   101   41  102 1   
   102   42  103 1   
   103   42  104 1   
   104   42  105 1   
@<TRIPOS>SUBSTRUCTURE
     1 MYY         1 TEMP              0 ****  ****    0 ROOT
