@<TRIPOS>MOLECULE
molecule
  105   104     1     0     0
SMALL
bcc


@<TRIPOS>ATOM
      1 C38          0.0000     0.0000     0.0000 c3         1 MYY      -0.092100
      2 C37          1.5300     0.0000     0.0000 c3         1 MYY      -0.084400
      3 C36          2.0390     0.0000     1.4430 c3         1 MYY      -0.081400
      4 C35          3.5690     0.0000     1.4430 c3         1 MYY      -0.082400
      5 C34          4.0790     0.0010     2.8850 c3         1 MYY      -0.082400
      6 C33          5.6090     0.0010     2.8850 c3         1 MYY      -0.082400
      7 C32          6.1200     0.0010     4.3280 c3         1 MYY      -0.082400
      8 C31          7.6500     0.0010     4.3280 c3         1 MYY      -0.082400
      9 C30          8.1590     0.0030     5.7710 c3         1 MYY      -0.082400
     10 C29          9.6890     0.0020     5.7710 c3         1 MYY      -0.082400
     11 C28         10.1990     0.0030     7.2130 c3         1 MYY      -0.082400
     12 C27         11.7300     0.0020     7.2130 c3         1 MYY      -0.080400
     13 C26         12.2390     0.0030     8.6560 c3         1 MYY      -0.084400
     14 C25         13.7690     0.0020     8.6560 c3         1 MYY      -0.071400
     15 C24         14.2790     0.0040    10.0990 c3         1 MYY      -0.125400
     16 C23         15.7860     0.0040    10.0990 c          1 MYY       0.647100
     17 O10         16.3900     0.0030     9.0530 o          1 MYY      -0.629000
     18 O8          16.4570     0.0040    11.2610 os         1 MYY      -0.329900
     19 C6          17.9090     0.0040    11.2610 c3         1 MYY       0.173400
     20 C5          18.4190     0.0040    12.7030 c3         1 MYY       0.145100
     21 C4          17.8090    -1.1760    13.4610 c3         1 MYY       0.143400
     22 O6          16.3840    -1.1220    13.3600 os         1 MYY      -0.523200
     23 P           15.8110    -2.3870    14.1750 p5         1 MYY       1.148900
     24 O4          14.2030    -2.3170    14.2140 o          1 MYY      -0.909833
     25 O3          16.2710    -3.7470    13.4460 o          1 MYY      -0.909833
     26 O5          16.3410    -2.3640    15.5570 o          1 MYY      -0.909833
     27 O7          18.0350     1.2460    13.3520 os         1 MYY      -0.405900
     28 C7          18.8040     1.7610    14.3230 c          1 MYY       0.644100
     29 O9          19.8160     1.1920    14.6590 o          1 MYY      -0.583000
     30 C8          18.4060     3.0490    14.9970 c3         1 MYY      -0.127400
     31 C9          19.4460     3.4130    16.0590 c3         1 MYY      -0.071400
     32 C10         19.0400     4.7210    16.7420 c3         1 MYY      -0.084400
     33 C11         20.0810     5.0850    17.8030 c3         1 MYY      -0.080400
     34 C12         19.6760     6.3920    18.4870 c3         1 MYY      -0.082400
     35 C13         20.7160     6.7560    19.5480 c3         1 MYY      -0.082400
     36 C14         20.3110     8.0640    20.2320 c3         1 MYY      -0.082400
     37 C15         21.3510     8.4270    21.2940 c3         1 MYY      -0.082400
     38 C16         20.9470     9.7350    21.9770 c3         1 MYY      -0.082400
     39 C17         21.9870    10.0990    23.0390 c3         1 MYY      -0.082400
     40 C18         21.5820    11.4070    23.7220 c3         1 MYY      -0.081400
     41 C19         22.6220    11.7710    24.7840 c3         1 MYY      -0.084400
     42 C20         22.2170    13.0780    25.4670 c3         1 MYY      -0.092100
     43 H381        -0.3610     0.8850     0.5110 hc         1 MYY       0.030367
     44 H382        -0.3610    -0.8840     0.5110 hc         1 MYY       0.030367
     45 H383        -0.3610    -0.0000    -1.0210 hc         1 MYY       0.030367
     46 H371         1.8910     0.8850    -0.5110 hc         1 MYY       0.039200
     47 H372         1.8910    -0.8850    -0.5110 hc         1 MYY       0.039200
     48 H361         1.6780     0.8840     1.9530 hc         1 MYY       0.041200
     49 H362         1.6780    -0.8850     1.9530 hc         1 MYY       0.041200
     50 H351         3.9310     0.8850     0.9320 hc         1 MYY       0.039700
     51 H352         3.9310    -0.8840     0.9330 hc         1 MYY       0.039700
     52 H341         3.7180    -0.8840     3.3960 hc         1 MYY       0.040700
     53 H342         3.7180     0.8850     3.3960 hc         1 MYY       0.040700
     54 H331         5.9700     0.8850     2.3740 hc         1 MYY       0.039200
     55 H332         5.9700    -0.8840     2.3750 hc         1 MYY       0.039200
     56 H321         5.7590     0.8860     4.8380 hc         1 MYY       0.041200
     57 H322         5.7590    -0.8830     4.8390 hc         1 MYY       0.041200
     58 H311         8.0110     0.8850     3.8160 hc         1 MYY       0.038200
     59 H312         8.0110    -0.8840     3.8180 hc         1 MYY       0.038200
     60 H301         7.7980     0.8880     6.2810 hc         1 MYY       0.041700
     61 H302         7.7970    -0.8810     6.2820 hc         1 MYY       0.041700
     62 H291        10.0510     0.8850     5.2590 hc         1 MYY       0.037200
     63 H292        10.0500    -0.8840     5.2610 hc         1 MYY       0.037200
     64 H281         9.8370    -0.8810     7.7240 hc         1 MYY       0.042700
     65 H282         9.8380     0.8880     7.7220 hc         1 MYY       0.042700
     66 H271        12.0910     0.8860     6.7020 hc         1 MYY       0.035700
     67 H272        12.0910    -0.8830     6.7040 hc         1 MYY       0.035700
     68 H261        11.8780     0.8880     9.1660 hc         1 MYY       0.046700
     69 H262        11.8770    -0.8810     9.1670 hc         1 MYY       0.046700
     70 H251        14.1300     0.8860     8.1440 hc         1 MYY       0.044200
     71 H252        14.1290    -0.8830     8.1460 hc         1 MYY       0.044200
     72 H241        13.9180    -0.8800    10.6100 hc         1 MYY       0.092200
     73 H242        13.9180     0.8890    10.6080 hc         1 MYY       0.092200
     74 H6C1        18.2710    -0.8800    10.7500 h1         1 MYY       0.032200
     75 H6C2        18.2700     0.8890    10.7500 h1         1 MYY       0.032200
     76 H5          19.4980    -0.0850    12.7050 h1         1 MYY       0.044700
     77 H4C1        18.1660    -2.1040    13.0310 h1         1 MYY       0.057200
     78 H4C2        18.0990    -1.1260    14.5030 h1         1 MYY       0.057200
     79 H8C1        18.3520     3.8410    14.2590 hc         1 MYY       0.067200
     80 H8C2        17.4380     2.9270    15.4670 hc         1 MYY       0.067200
     81 H9C1        19.5010     2.6220    16.7970 hc         1 MYY       0.056700
     82 H9C2        20.4140     3.5360    15.5890 hc         1 MYY       0.056700
     83 H101        18.9850     5.5120    16.0040 hc         1 MYY       0.037700
     84 H102        18.0720     4.5980    17.2130 hc         1 MYY       0.037700
     85 H111        20.1360     4.2940    18.5410 hc         1 MYY       0.042200
     86 H112        21.0490     5.2080    17.3330 hc         1 MYY       0.042200
     87 H121        18.7080     6.2690    18.9570 hc         1 MYY       0.038700
     88 H122        19.6210     7.1840    17.7490 hc         1 MYY       0.038700
     89 H131        21.6840     6.8800    19.0780 hc         1 MYY       0.040700
     90 H132        20.7720     5.9650    20.2860 hc         1 MYY       0.040700
     91 H141        20.2570     8.8550    19.4940 hc         1 MYY       0.039700
     92 H142        19.3430     7.9400    20.7020 hc         1 MYY       0.039700
     93 H151        22.3190     8.5490    20.8240 hc         1 MYY       0.040200
     94 H152        21.4050     7.6360    22.0320 hc         1 MYY       0.040200
     95 H161        19.9790     9.6130    22.4470 hc         1 MYY       0.040200
     96 H162        20.8930    10.5260    21.2390 hc         1 MYY       0.040200
     97 H171        22.9550    10.2210    22.5690 hc         1 MYY       0.040700
     98 H172        22.0410     9.3080    23.7770 hc         1 MYY       0.040700
     99 H181        20.6140    11.2850    24.1920 hc         1 MYY       0.040200
    100 H182        21.5280    12.1980    22.9840 hc         1 MYY       0.040200
    101 H191        23.5900    11.8930    24.3140 hc         1 MYY       0.039200
    102 H192        22.6760    10.9800    25.5220 hc         1 MYY       0.039200
    103 H201        22.9540    13.3360    26.2180 hc         1 MYY       0.030033
    104 H202        21.2490    12.9560    25.9370 hc         1 MYY       0.030033
    105 H203        22.1630    13.8690    24.7290 hc         1 MYY       0.030033
@<TRIPOS>BOND
     1     1     2 1
     2     1    43 1
     3     1    44 1
     4     1    45 1
     5     2     3 1
     6     2    46 1
     7     2    47 1
     8     3     4 1
     9     3    48 1
    10     3    49 1
    11     4     5 1
    12     4    50 1
    13     4    51 1
    14     5     6 1
    15     5    52 1
    16     5    53 1
    17     6     7 1
    18     6    54 1
    19     6    55 1
    20     7     8 1
    21     7    56 1
    22     7    57 1
    23     8     9 1
    24     8    58 1
    25     8    59 1
    26     9    10 1
    27     9    60 1
    28     9    61 1
    29    10    11 1
    30    10    62 1
    31    10    63 1
    32    11    12 1
    33    11    64 1
    34    11    65 1
    35    12    13 1
    36    12    66 1
    37    12    67 1
    38    13    14 1
    39    13    68 1
    40    13    69 1
    41    14    15 1
    42    14    70 1
    43    14    71 1
    44    15    16 1
    45    15    72 1
    46    15    73 1
    47    16    17 2
    48    16    18 1
    49    18    19 1
    50    19    20 1
    51    19    74 1
    52    19    75 1
    53    20    21 1
    54    20    27 1
    55    20    76 1
    56    21    22 1
    57    21    77 1
    58    21    78 1
    59    22    23 1
    60    23    24 1
    61    23    25 1
    62    23    26 1
    63    27    28 1
    64    28    29 2
    65    28    30 1
    66    30    31 1
    67    30    79 1
    68    30    80 1
    69    31    32 1
    70    31    81 1
    71    31    82 1
    72    32    33 1
    73    32    83 1
    74    32    84 1
    75    33    34 1
    76    33    85 1
    77    33    86 1
    78    34    35 1
    79    34    87 1
    80    34    88 1
    81    35    36 1
    82    35    89 1
    83    35    90 1
    84    36    37 1
    85    36    91 1
    86    36    92 1
    87    37    38 1
    88    37    93 1
    89    37    94 1
    90    38    39 1
    91    38    95 1
    92    38    96 1
    93    39    40 1
    94    39    97 1
    95    39    98 1
    96    40    41 1
    97    40    99 1
    98    40   100 1
    99    41    42 1
   100    41   101 1
   101    41   102 1
   102    42   103 1
   103    42   104 1
   104    42   105 1
@<TRIPOS>SUBSTRUCTURE
     1 MYY         1 TEMP              0 ****  ****    0 ROOT
