@<TRIPOS>MOLECULE
molecule
   41    40     1     0     0
SMALL
bcc


@<TRIPOS>ATOM
      1 C1           0.0000     0.0000     0.0000 c          1 MYZ       0.891600
      2 O1           1.2080     0.0000     0.0000 o          1 MYZ      -0.856800
      3 O2          -0.6720     0.0000     1.1620 o          1 MYZ      -0.856800
      4 C2          -0.7530     0.0070    -1.3050 c3         1 MYZ      -0.183400
      5 C3           0.2420     0.0130    -2.4670 c3         1 MYZ      -0.062400
      6 C4          -0.5240     0.0200    -3.7940 c3         1 MYZ      -0.088400
      7 C5           0.4710     0.0260    -4.9560 c3         1 MYZ      -0.079400
      8 C6          -0.2930     0.0320    -6.2810 c3         1 MYZ      -0.088400
      9 C7           0.7020     0.0380    -7.4440 c3         1 MYZ      -0.034400
     10 C8          -0.0630     0.0450    -8.7690 c3         1 MYZ      -0.145200
     11 C9           0.9170     0.0510    -9.9140 c2         1 MYZ      -0.338200
     12 C10          0.8170    -0.8430   -10.8660 c2         1 MYZ      -0.360200
     13 C11         -0.3730    -1.7670   -10.9090 c3         1 MYZ      -0.147200
     14 C12         -1.0340    -1.6840   -12.2870 c3         1 MYZ      -0.035400
     15 C13         -2.2410    -2.6230   -12.3320 c3         1 MYZ      -0.089400
     16 C14         -2.9020    -2.5380   -13.7090 c3         1 MYZ      -0.090100
     17 H21C        -1.3760     0.8910    -1.3580 hc         1 MYZ       0.026200
     18 H22C        -1.3760    -0.8780    -1.3670 hc         1 MYZ       0.026200
     19 H31C         0.8640    -0.8720    -2.4150 hc         1 MYZ       0.046200
     20 H32C         0.8640     0.8970    -2.4050 hc         1 MYZ       0.046200
     21 H41C        -1.1470    -0.8650    -3.8560 hc         1 MYZ       0.029200
     22 H42C        -1.1460     0.9040    -3.8460 hc         1 MYZ       0.029200
     23 H51C         1.0940    -0.8590    -4.9030 hc         1 MYZ       0.042700
     24 H52C         1.0940     0.9100    -4.8940 hc         1 MYZ       0.042700
     25 H61C        -0.9160     0.9170    -6.3340 hc         1 MYZ       0.036200
     26 H62C        -0.9160    -0.8520    -6.3440 hc         1 MYZ       0.036200
     27 H71C         1.3240     0.9230    -7.3820 hc         1 MYZ       0.057700
     28 H72C         1.3250    -0.8460    -7.3910 hc         1 MYZ       0.057700
     29 H81C        -0.6860     0.9290    -8.8220 hc         1 MYZ       0.033700
     30 H82C        -0.6850    -0.8400    -8.8310 hc         1 MYZ       0.033700
     31 H9          -0.0470     0.5380   -10.0020 ha         1 MYZ       0.334000
     32 H10          0.7970    -1.7530   -10.2790 ha         1 MYZ       0.327000
     33 H111        -0.0480    -2.7840   -10.7260 hc         1 MYZ       0.034200
     34 H112        -1.0870    -1.4740   -10.1490 hc         1 MYZ       0.034200
     35 H121        -0.3200    -1.9770   -13.0480 hc         1 MYZ       0.054700
     36 H122        -1.3600    -0.6670   -12.4700 hc         1 MYZ       0.054700
     37 H131        -2.9540    -2.3300   -11.5700 hc         1 MYZ       0.040200
     38 H132        -1.9150    -3.6390   -12.1490 hc         1 MYZ       0.040200
     39 H141        -3.7570    -3.2030   -13.7410 hc         1 MYZ       0.033367
     40 H142        -2.1890    -2.8310   -14.4710 hc         1 MYZ       0.033367
     41 H143        -3.2280    -1.5220   -13.8920 hc         1 MYZ       0.033367
@<TRIPOS>BOND
     1     1     2 1
     2     1     3 1
     3     1     4 1
     4     4     5 1
     5     5     6 1
     6     6     7 1
     7     7     8 1
     8     8     9 1
     9     9    10 1
    10    10    11 1
    11    11    12 2
    12    12    13 1
    13    13    14 1
    14    14    15 1
    15    15    16 1
    16     4    17 1
    17     4    18 1
    18     5    19 1
    19     5    20 1
    20     6    21 1
    21     6    22 1
    22     7    23 1
    23     7    24 1
    24     8    25 1
    25     8    26 1
    26     9    27 1
    27     9    28 1
    28    10    29 1
    29    10    30 1
    30    11    31 1
    31    12    32 1
    32    13    33 1
    33    13    34 1
    34    14    35 1
    35    14    36 1
    36    15    37 1
    37    15    38 1
    38    16    39 1
    39    16    40 1
    40    16    41 1
@<TRIPOS>SUBSTRUCTURE
     1 MYZ         1 TEMP              0 ****  ****    0 ROOT
