@<TRIPOS>MOLECULE
MYZ
   41    40     1     0     0
SMALL
bcc


@<TRIPOS>ATOM
      1 C1          0.1650    0.7040    0.2460 c         1 MYZ      0.907600
      2 O1          0.7670    1.8140    0.1650 o         1 MYZ     -0.853300
      3 O2          0.0830    0.0240    1.3100 o         1 MYZ     -0.853300
      4 C2         -0.5310    0.1520   -1.0110 c3        1 MYZ     -0.194400
      5 C3          0.3630    0.2520   -2.2220 c3        1 MYZ     -0.065400
      6 C4         -0.3680   -0.1150   -3.4970 c3        1 MYZ     -0.078400
      7 C5          0.5420   -0.0280   -4.7030 c3        1 MYZ     -0.078400
      8 C6         -0.1900   -0.3890   -5.9780 c3        1 MYZ     -0.079400
      9 C7          0.7220   -0.3010   -7.1830 c3        1 MYZ     -0.077400
     10 C8         -0.0140   -0.6660   -8.4560 c3        1 MYZ     -0.052200
     11 C9          0.8550   -0.5900   -9.6540 c2        1 MYZ     -0.159200
     12 C10         0.4560   -0.9220  -10.8860 c2        1 MYZ     -0.191200
     13 C11        -0.9060   -1.4140  -11.2030 c3        1 MYZ     -0.046200
     14 C12        -1.1000   -1.6540  -12.6860 c3        1 MYZ     -0.076400
     15 C13        -2.4980   -2.1540  -12.9820 c3        1 MYZ     -0.081400
     16 C14        -2.6990   -2.3950  -14.4560 c3        1 MYZ     -0.091100
     17 H21C       -0.8290   -0.9110   -0.8330 hc        1 MYZ      0.018700
     18 H22C       -1.4640    0.7480   -1.1750 hc        1 MYZ      0.018700
     19 H31C        1.2470   -0.4250   -2.0910 hc        1 MYZ      0.044200
     20 H32C        0.7580    1.3010   -2.2910 hc        1 MYZ      0.044200
     21 H41C       -0.7780   -1.1550   -3.4100 hc        1 MYZ      0.025700
     22 H42C       -1.2430    0.5730   -3.6380 hc        1 MYZ      0.025700
     23 H51C        1.4160   -0.7180   -4.5640 hc        1 MYZ      0.036700
     24 H52C        0.9530    1.0120   -4.7870 hc        1 MYZ      0.036700
     25 H61C       -1.0640    0.3010   -6.1170 hc        1 MYZ      0.034200
     26 H62C       -0.6020   -1.4290   -5.8930 hc        1 MYZ      0.034200
     27 H71C        1.5960   -0.9900   -7.0430 hc        1 MYZ      0.039700
     28 H72C        1.1310    0.7400   -7.2690 hc        1 MYZ      0.039700
     29 H81C       -0.4320   -1.7060   -8.3630 hc        1 MYZ      0.046700
     30 H82C       -0.8940    0.0220   -8.5910 hc        1 MYZ      0.046700
     31 H9          1.8830   -0.2320   -9.4800 ha        1 MYZ      0.122000
     32 H10         1.1500   -0.8420  -11.7380 ha        1 MYZ      0.116000
     33 H111       -1.6670   -0.6690  -10.8400 hc        1 MYZ      0.047700
     34 H112       -1.0980   -2.3680  -10.6390 hc        1 MYZ      0.047700
     35 H121       -0.9150   -0.7010  -13.2490 hc        1 MYZ      0.038700
     36 H122       -0.3490   -2.4040  -13.0480 hc        1 MYZ      0.038700
     37 H131       -2.6830   -3.1050  -12.4160 hc        1 MYZ      0.039700
     38 H132       -3.2480   -1.4030  -12.6170 hc        1 MYZ      0.039700
     39 H141       -2.5440   -1.4520  -15.0340 hc        1 MYZ      0.030367
     40 H142       -1.9770   -3.1590  -14.8320 hc        1 MYZ      0.030367
     41 H143       -3.7350   -2.7620  -14.6520 hc        1 MYZ      0.030367
@<TRIPOS>BOND
     1    1    2 1   
     2    1    3 1   
     3    1    4 1   
     4    4    5 1   
     5    4   17 1   
     6    4   18 1   
     7    5    6 1   
     8    5   19 1   
     9    5   20 1   
    10    6    7 1   
    11    6   21 1   
    12    6   22 1   
    13    7    8 1   
    14    7   23 1   
    15    7   24 1   
    16    8    9 1   
    17    8   25 1   
    18    8   26 1   
    19    9   10 1   
    20    9   27 1   
    21    9   28 1   
    22   10   11 1   
    23   10   29 1   
    24   10   30 1   
    25   11   12 2   
    26   11   31 1   
    27   12   13 1   
    28   12   32 1   
    29   13   14 1   
    30   13   33 1   
    31   13   34 1   
    32   14   15 1   
    33   14   35 1   
    34   14   36 1   
    35   15   16 1   
    36   15   37 1   
    37   15   38 1   
    38   16   39 1   
    39   16   40 1   
    40   16   41 1   
@<TRIPOS>SUBSTRUCTURE
     1 MYZ         1 TEMP              0 ****  ****    0 ROOT
