@<TRIPOS>MOLECULE
molecule
   13    13     1     0     0
SMALL
bcc


@<TRIPOS>ATOM
      1 N1           0.0000     0.0000     0.0000 na         1 MZ0      -0.298900
      2 C2           1.3510     0.0000     0.0000 cc         1 MZ0       0.397400
      3 N3           1.7680     0.0000     1.2360 nd         1 MZ0      -0.700000
      4 C4           0.7110     0.0000     2.0610 cd         1 MZ0       0.349200
      5 C5          -0.4050     0.0000     1.3070 cc         1 MZ0      -0.251900
      6 C6          -1.8270     0.0000     1.8070 c3         1 MZ0       0.227700
      7 O7          -1.8290    -0.0000     3.2360 oh         1 MZ0      -0.598800
      8 HN1         -0.5940    -0.0000    -0.8060 hn         1 MZ0       0.294700
      9 H2           1.9820    -0.0000    -0.8800 h5         1 MZ0       0.064100
     10 H4           0.7480    -0.0000     3.1430 h4         1 MZ0       0.056100
     11 H6          -2.3370    -0.8850     1.4450 h1         1 MZ0       0.025700
     12 H6A         -2.3370     0.8850     1.4450 h1         1 MZ0       0.025700
     13 HO7         -2.7190    -0.0000     3.5490 ho         1 MZ0       0.409000
@<TRIPOS>BOND
     1     1     2 1
     2     1     5 1
     3     2     3 2
     4     3     4 1
     5     4     5 2
     6     5     6 1
     7     6     7 1
     8     1     8 1
     9     2     9 1
    10     4    10 1
    11     6    11 1
    12     6    12 1
    13     7    13 1
@<TRIPOS>SUBSTRUCTURE
     1 MZ0         1 TEMP              0 ****  ****    0 ROOT
