@<TRIPOS>MOLECULE
molecule
   67    69     1     0     0
SMALL
bcc


@<TRIPOS>ATOM
      1 O26          0.0000     0.0000     0.0000 o          1 MZ1      -0.620100
      2 C25          1.2130     0.0000     0.0000 c          1 MZ1       0.659100
      3 C27          1.9660     0.0000     1.3050 c3         1 MZ1      -0.169100
      4 N24          1.8870    -0.0050    -1.1670 ns         1 MZ1      -0.570900
      5 C22          1.1550    -0.0120    -2.4360 c3         1 MZ1       0.043700
      6 C23          0.7920     1.4250    -2.8220 c3         1 MZ1      -0.106100
      7 C21          2.0190    -0.6170    -3.5120 c          1 MZ1       0.652100
      8 O22          3.1360    -1.0060    -3.2450 o          1 MZ1      -0.598100
      9 N20          1.5510    -0.7270    -4.7710 ns         1 MZ1      -0.575900
     10 C19          2.3900    -1.3160    -5.8170 c3         1 MZ1       0.108700
     11 C32          2.2480    -2.8390    -5.7880 c3         1 MZ1      -0.048100
     12 C38          2.7990    -3.3700    -4.4890 ca         1 MZ1      -0.069300
     13 C37          1.9700    -3.5020    -3.3900 ca         1 MZ1      -0.118500
     14 C36          2.4740    -3.9890    -2.1990 ca         1 MZ1      -0.119000
     15 C35          3.8080    -4.3440    -2.1060 ca         1 MZ1      -0.129000
     16 C34          4.6360    -4.2110    -3.2050 ca         1 MZ1      -0.119000
     17 C33          4.1300    -3.7280    -4.3970 ca         1 MZ1      -0.118500
     18 C17          1.9480    -0.7880    -7.1830 c3         1 MZ1       0.093100
     19 O18          0.6220    -1.2430    -7.4630 oh         1 MZ1      -0.594800
     20 C16          2.9020    -1.3040    -8.2620 c3         1 MZ1       0.234800
     21 N11          2.5750    -0.6740    -9.5440 n3         1 MZ1      -0.805500
     22 S8           2.8800     0.9380    -9.7760 sy         1 MZ1       1.425200
     23 O9           1.8900     1.4060   -10.6820 o          1 MZ1      -0.625800
     24 O10          3.0800     1.4970    -8.4850 o          1 MZ1      -0.625800
     25 C5           4.4230     1.0620   -10.6170 ca         1 MZ1      -0.348500
     26 C6           4.4710     1.5750   -11.8990 ca         1 MZ1      -0.022000
     27 C7           5.6830     1.6730   -12.5600 ca         1 MZ1       0.065900
     28 F1           5.7300     2.1750   -13.8130 f          1 MZ1      -0.116900
     29 C4           5.5870     0.6510    -9.9890 ca         1 MZ1       0.238900
     30 F3           5.5390     0.1540    -8.7350 f          1 MZ1      -0.116900
     31 C3           6.8000     0.7470   -10.6500 ca         1 MZ1      -0.207000
     32 C2           6.8490     1.2570   -11.9360 ca         1 MZ1       0.176900
     33 F2           8.0320     1.3510   -12.5810 f          1 MZ1      -0.109900
     34 C12          1.9820    -1.4690   -10.6210 c3         1 MZ1       0.325100
     35 C15          0.4950    -1.5820   -10.4010 cc         1 MZ1      -0.061400
     36 C18         -0.4050    -0.6610   -10.7480 cd         1 MZ1      -0.144000
     37 C14         -1.7180    -0.9840   -10.4450 cd         1 MZ1      -0.165000
     38 C13         -1.8820    -2.1670    -9.8520 cc         1 MZ1      -0.071100
     39 S1          -0.3190    -2.9500    -9.6530 ss         1 MZ1      -0.131800
     40 H271         1.2640    -0.0600     2.1280 hc         1 MZ1       0.062033
     41 H272         2.6330    -0.8530     1.3370 hc         1 MZ1       0.062033
     42 H273         2.5430     0.9130     1.3890 hc         1 MZ1       0.062033
     43 HN24         2.8880     0.0110    -1.1660 hn         1 MZ1       0.336500
     44 H22          0.2500    -0.5970    -2.3280 h1         1 MZ1       0.092700
     45 H231         0.5000     1.9740    -1.9350 hc         1 MZ1       0.047700
     46 H232         1.6490     1.9040    -3.2780 hc         1 MZ1       0.047700
     47 H233        -0.0320     1.4120    -3.5260 hc         1 MZ1       0.047700
     48 HN20         0.6300    -0.4010    -4.9920 hn         1 MZ1       0.314500
     49 H19          3.4250    -1.0460    -5.6440 h1         1 MZ1       0.089700
     50 H321         2.8000    -3.2690    -6.6150 hc         1 MZ1       0.058200
     51 H322         1.2020    -3.1070    -5.8740 hc         1 MZ1       0.058200
     52 H37          0.9260    -3.2250    -3.4630 ha         1 MZ1       0.122000
     53 H36          1.8250    -4.0930    -1.3380 ha         1 MZ1       0.125000
     54 H35          4.2040    -4.7240    -1.1720 ha         1 MZ1       0.124000
     55 H34          5.6810    -4.4900    -3.1330 ha         1 MZ1       0.125000
     56 H33          4.7790    -3.6240    -5.2580 ha         1 MZ1       0.122000
     57 H17          1.9640     0.2950    -7.1750 h1         1 MZ1       0.078700
     58 HO18         0.0120    -0.5380    -7.3220 ho         1 MZ1       0.402000
     59 H161         3.9220    -1.0600    -7.9900 h1         1 MZ1       0.070200
     60 H162         2.8000    -2.3790    -8.3520 h1         1 MZ1       0.070200
     61 H6           3.5610     1.9100   -12.3820 ha         1 MZ1       0.185000
     62 H3           7.7110     0.4240   -10.1610 ha         1 MZ1       0.174000
     63 H121         2.1700    -0.9860   -11.5730 h1         1 MZ1       0.061700
     64 H122         2.4220    -2.4590   -10.6250 h1         1 MZ1       0.061700
     65 H18         -0.1310     0.2700   -11.2310 ha         1 MZ1       0.171000
     66 H14         -2.5470    -0.3250   -10.6700 ha         1 MZ1       0.147000
     67 H13         -2.8330    -2.5850    -9.5430 h4         1 MZ1       0.169000
@<TRIPOS>BOND
     1     1     2 2
     2     2     3 1
     3     2     4 1
     4     3    40 1
     5     3    41 1
     6     3    42 1
     7     4     5 1
     8     4    43 1
     9     5     6 1
    10     5     7 1
    11     5    44 1
    12     6    45 1
    13     6    46 1
    14     6    47 1
    15     7     8 2
    16     7     9 1
    17     9    10 1
    18     9    48 1
    19    10    11 1
    20    10    18 1
    21    10    49 1
    22    11    12 1
    23    11    50 1
    24    11    51 1
    25    12    13 ar
    26    12    17 ar
    27    13    14 ar
    28    13    52 1
    29    14    15 ar
    30    14    53 1
    31    15    16 ar
    32    15    54 1
    33    16    17 ar
    34    16    55 1
    35    17    56 1
    36    18    20 1
    37    18    19 1
    38    18    57 1
    39    19    58 1
    40    20    21 1
    41    20    59 1
    42    20    60 1
    43    21    22 1
    44    21    34 1
    45    22    23 2
    46    22    24 2
    47    22    25 1
    48    25    26 ar
    49    25    29 ar
    50    26    27 ar
    51    26    61 1
    52    27    28 1
    53    27    32 ar
    54    29    30 1
    55    29    31 ar
    56    31    32 ar
    57    31    62 1
    58    32    33 1
    59    34    35 1
    60    34    63 1
    61    34    64 1
    62    35    39 1
    63    35    36 2
    64    36    37 1
    65    36    65 1
    66    37    38 2
    67    37    66 1
    68    38    39 1
    69    38    67 1
@<TRIPOS>SUBSTRUCTURE
     1 MZ1         1 TEMP              0 ****  ****    0 ROOT
