@<TRIPOS>MOLECULE
molecule
   64    66     1     0     0
SMALL
bcc


@<TRIPOS>ATOM
      1 F26          0.0000     0.0000     0.0000 f          1 MZ2      -0.221300
      2 C25          1.3990     0.0000     0.0000 c3         1 MZ2       0.658100
      3 F28          1.8650     0.0000     1.3190 f          1 MZ2      -0.221300
      4 F27          1.8660    -1.1420    -0.6600 f          1 MZ2      -0.221300
      5 C23          1.9010     1.2320    -0.7100 c2         1 MZ2      -0.124400
      6 C24          3.2170     1.1950    -1.4420 c3         1 MZ2      -0.046900
      7 C22          1.1800     2.3500    -0.6910 ce         1 MZ2      -0.196200
      8 C21          1.5880     3.5010    -1.5110 c          1 MZ2       0.662300
      9 O22          2.5520     3.4130    -2.2470 o          1 MZ2      -0.592100
     10 N20          0.8940     4.6550    -1.4450 ns         1 MZ2      -0.571900
     11 C19          1.3000     5.8010    -2.2620 c3         1 MZ2       0.107700
     12 C32          0.6820     5.6780    -3.6560 c3         1 MZ2      -0.047100
     13 C38          1.2520     4.4700    -4.3540 ca         1 MZ2      -0.069300
     14 C37          0.6320     3.2420    -4.2240 ca         1 MZ2      -0.118500
     15 C36          1.1550     2.1340    -4.8650 ca         1 MZ2      -0.121000
     16 C35          2.2960     2.2540    -5.6340 ca         1 MZ2      -0.128000
     17 C34          2.9160     3.4840    -5.7650 ca         1 MZ2      -0.121000
     18 C33          2.3900     4.5930    -5.1290 ca         1 MZ2      -0.118500
     19 C17          0.8180     7.0940    -1.6020 c3         1 MZ2       0.093100
     20 O18         -0.6120     7.1210    -1.5950 oh         1 MZ2      -0.594800
     21 C16          1.3470     8.2960    -2.3860 c3         1 MZ2       0.236800
     22 N11          1.0110     9.5300    -1.6730 n3         1 MZ2      -0.806500
     23 S8           1.7580     9.8890    -0.2390 sy         1 MZ2       1.426200
     24 O9           0.8140    10.6170     0.5340 o          1 MZ2      -0.625300
     25 O10          2.3670     8.6850     0.2070 o          1 MZ2      -0.625300
     26 C5           3.0720    11.0060    -0.6010 ca         1 MZ2      -0.348500
     27 C6           3.0350    12.2970    -0.1100 ca         1 MZ2      -0.022000
     28 C7           4.0670    13.1760    -0.3930 ca         1 MZ2       0.064900
     29 F1           4.0310    14.4380     0.0870 f          1 MZ2      -0.116900
     30 C4           4.1430    10.5880    -1.3720 ca         1 MZ2       0.238900
     31 F3           4.1810     9.3240    -1.8470 f          1 MZ2      -0.117900
     32 C3           5.1760    11.4650    -1.6570 ca         1 MZ2      -0.207000
     33 C2           5.1370    12.7600    -1.1700 ca         1 MZ2       0.176900
     34 F2           6.1440    13.6160    -1.4470 f          1 MZ2      -0.109900
     35 C12          0.0140    10.4490    -2.2290 c3         1 MZ2       0.324100
     36 C15         -1.3690     9.9560    -1.8880 cc         1 MZ2      -0.060400
     37 C18         -2.0030    10.1820    -0.7360 cd         1 MZ2      -0.142000
     38 C14         -3.2690     9.6280    -0.6490 cd         1 MZ2      -0.165000
     39 C13         -3.6620     8.9520    -1.7300 cc         1 MZ2      -0.071100
     40 S1          -2.3950     9.0000    -2.9490 ss         1 MZ2      -0.130800
     41 H241         3.7680     0.3090    -1.1500 hc         1 MZ2       0.067367
     42 H242         3.0360     1.1730    -2.5100 hc         1 MZ2       0.067367
     43 H243         3.7940     2.0770    -1.1920 hc         1 MZ2       0.067367
     44 H22          0.2340     2.3730    -0.1630 ha         1 MZ2       0.141000
     45 HN20         0.1240     4.7400    -0.8110 hn         1 MZ2       0.313500
     46 H19          2.3800     5.8200    -2.3470 h1         1 MZ2       0.089700
     47 H321         0.9100     6.5680    -4.2310 hc         1 MZ2       0.058700
     48 H322        -0.3920     5.5710    -3.5670 hc         1 MZ2       0.058700
     49 H37         -0.2630     3.1470    -3.6210 ha         1 MZ2       0.122500
     50 H36          0.6700     1.1700    -4.7630 ha         1 MZ2       0.125000
     51 H35          2.7070     1.3850    -6.1340 ha         1 MZ2       0.125000
     52 H34          3.8090     3.5790    -6.3700 ha         1 MZ2       0.125000
     53 H33          2.8750     5.5560    -5.2300 ha         1 MZ2       0.122500
     54 H17          1.1840     7.1370    -0.5830 h1         1 MZ2       0.078700
     55 HO18        -0.9270     6.8730    -0.7420 ho         1 MZ2       0.401000
     56 H161         2.4230     8.2170    -2.4850 h1         1 MZ2       0.070700
     57 H162         0.8940     8.3120    -3.3700 h1         1 MZ2       0.070700
     58 H6           2.2080    12.6170     0.5120 ha         1 MZ2       0.185000
     59 H3           6.0130    11.1380    -2.2620 ha         1 MZ2       0.174000
     60 H121         0.1260    10.4950    -3.3050 h1         1 MZ2       0.061200
     61 H122         0.1590    11.4370    -1.8080 h1         1 MZ2       0.061200
     62 H18         -1.5620    10.7560     0.0690 ha         1 MZ2       0.170000
     63 H14         -3.8920     9.7340     0.2310 ha         1 MZ2       0.147000
     64 H13         -4.6180     8.4530    -1.8420 h4         1 MZ2       0.169000
@<TRIPOS>BOND
     1     1     2 1
     2     2     3 1
     3     2     4 1
     4     2     5 1
     5     5     6 1
     6     5     7 2
     7     6    41 1
     8     6    42 1
     9     6    43 1
    10     7     8 1
    11     7    44 1
    12     8     9 2
    13     8    10 1
    14    10    11 1
    15    10    45 1
    16    11    12 1
    17    11    19 1
    18    11    46 1
    19    12    13 1
    20    12    47 1
    21    12    48 1
    22    13    14 ar
    23    13    18 ar
    24    14    15 ar
    25    14    49 1
    26    15    16 ar
    27    15    50 1
    28    16    17 ar
    29    16    51 1
    30    17    18 ar
    31    17    52 1
    32    18    53 1
    33    19    21 1
    34    19    20 1
    35    19    54 1
    36    20    55 1
    37    21    22 1
    38    21    56 1
    39    21    57 1
    40    22    23 1
    41    22    35 1
    42    23    24 2
    43    23    25 2
    44    23    26 1
    45    26    27 ar
    46    26    30 ar
    47    27    28 ar
    48    27    58 1
    49    28    29 1
    50    28    33 ar
    51    30    31 1
    52    30    32 ar
    53    32    33 ar
    54    32    59 1
    55    33    34 1
    56    35    36 1
    57    35    60 1
    58    35    61 1
    59    36    40 1
    60    36    37 2
    61    37    38 1
    62    37    62 1
    63    38    39 2
    64    38    63 1
    65    39    40 1
    66    39    64 1
@<TRIPOS>SUBSTRUCTURE
     1 MZ2         1 TEMP              0 ****  ****    0 ROOT
