@<TRIPOS>MOLECULE
molecule
   71    74     1     0     0
SMALL
bcc


@<TRIPOS>ATOM
      1 F29          0.0000     0.0000     0.0000 f          1 MZ3      -0.134900
      2 C26          1.3510     0.0000     0.0000 ca         1 MZ3       0.120900
      3 C25          2.0430     0.0000     1.2000 ca         1 MZ3      -0.141000
      4 C24          3.4270     0.0000     1.2070 ca         1 MZ3      -0.122000
      5 C23          4.1260     0.0010     0.0180 ca         1 MZ3      -0.120000
      6 C27          2.0400    -0.0050    -1.1980 ca         1 MZ3      -0.051300
      7 C28          1.2870    -0.0100    -2.5030 c3         1 MZ3      -0.048800
      8 C22          3.4360     0.0010    -1.1950 ca         1 MZ3      -0.128600
      9 C21          4.1800     0.0020    -2.4730 c          1 MZ3       0.674700
     10 O22          3.5780     0.0480    -3.5270 o          1 MZ3      -0.588100
     11 N20          5.5270    -0.0500    -2.4680 ns         1 MZ3      -0.582900
     12 C19          6.2650    -0.0490    -3.7340 c3         1 MZ3       0.103700
     13 C32          6.4670     1.3920    -4.2050 c3         1 MZ3      -0.046100
     14 C38          5.1310     2.0100    -4.5230 ca         1 MZ3      -0.071300
     15 C37          4.4250     2.6760    -3.5380 ca         1 MZ3      -0.116500
     16 C36          3.1980     3.2420    -3.8300 ca         1 MZ3      -0.121000
     17 C35          2.6770     3.1430    -5.1060 ca         1 MZ3      -0.127000
     18 C34          3.3830     2.4790    -6.0910 ca         1 MZ3      -0.121000
     19 C33          4.6120     1.9160    -5.8000 ca         1 MZ3      -0.116500
     20 C17          7.6270    -0.7160    -3.5310 c3         1 MZ3       0.105100
     21 O18          8.4140     0.0710    -2.6340 oh         1 MZ3      -0.601800
     22 C16          8.3460    -0.8270    -4.8760 c3         1 MZ3       0.228800
     23 N11          9.6240    -1.5200    -4.6910 n3         1 MZ3      -0.805500
     24 C12          9.6430    -2.9240    -4.2780 c3         1 MZ3       0.318100
     25 C15          9.4280    -3.8060    -5.4810 cc         1 MZ3      -0.067400
     26 C18         10.3960    -4.3700    -6.2040 cd         1 MZ3      -0.126000
     27 C14          9.9570    -5.1410    -7.2660 cd         1 MZ3      -0.158000
     28 C13          8.6330    -5.2020    -7.4070 cc         1 MZ3      -0.058100
     29 S1           7.8610    -4.2530    -6.1430 ss         1 MZ3      -0.182800
     30 S8          11.0480    -0.7140    -4.9490 sy         1 MZ3       1.431200
     31 O9          12.0230    -1.7050    -5.2400 o          1 MZ3      -0.633300
     32 O10         10.7460     0.3610    -5.8290 o          1 MZ3      -0.633300
     33 C5          11.5200     0.0160    -3.4170 ca         1 MZ3      -0.276500
     34 C6          12.3150    -0.6870    -2.5340 ca         1 MZ3      -0.067000
     35 C7          12.6870    -0.1120    -1.3270 ca         1 MZ3       0.114100
     36 O19         13.4710    -0.8020    -0.4580 os         1 MZ3      -0.327900
     37 C20         13.8140    -0.1480     0.7660 c3         1 MZ3       0.128700
     38 C2          12.2570     1.1680    -1.0100 ca         1 MZ3      -0.172000
     39 C3          11.4610     1.8680    -1.8970 ca         1 MZ3      -0.115000
     40 C4          11.0970     1.2940    -3.1010 ca         1 MZ3      -0.044000
     41 H25          1.4990    -0.0010     2.1370 ha         1 MZ3       0.147000
     42 H24          3.9620     0.0000     2.1480 ha         1 MZ3       0.138000
     43 H23          5.2100     0.0040     0.0250 ha         1 MZ3       0.124000
     44 H281         0.2300    -0.1480    -2.3090 hc         1 MZ3       0.062033
     45 H282         1.6490    -0.8190    -3.1260 hc         1 MZ3       0.062033
     46 H283         1.4410     0.9340    -3.0130 hc         1 MZ3       0.062033
     47 HN20         6.0220    -0.1250    -1.6010 hn         1 MZ3       0.309500
     48 H19          5.7030    -0.5980    -4.4800 h1         1 MZ3       0.088700
     49 H321         6.9520     1.9630    -3.4230 hc         1 MZ3       0.061200
     50 H322         7.0880     1.3980    -5.0930 hc         1 MZ3       0.061200
     51 H37          4.8340     2.7540    -2.5370 ha         1 MZ3       0.124000
     52 H36          2.6450     3.7640    -3.0580 ha         1 MZ3       0.125000
     53 H35          1.7150     3.5850    -5.3340 ha         1 MZ3       0.125000
     54 H34          2.9750     2.4030    -7.0920 ha         1 MZ3       0.125000
     55 H33          5.1650     1.3950    -6.5720 ha         1 MZ3       0.124000
     56 H17          7.4860    -1.7060    -3.1140 h1         1 MZ3       0.043700
     57 HO18         8.3820    -0.3080    -1.7720 ho         1 MZ3       0.402000
     58 H161         8.5280     0.1650    -5.2720 h1         1 MZ3       0.081700
     59 H162         7.7300    -1.3860    -5.5710 h1         1 MZ3       0.081700
     60 H121        10.6000    -3.1560    -3.8270 h1         1 MZ3       0.062200
     61 H122         8.8530    -3.0990    -3.5570 h1         1 MZ3       0.062200
     62 H18         11.4460    -4.2370    -5.9760 ha         1 MZ3       0.170000
     63 H14         10.6390    -5.6530    -7.9350 ha         1 MZ3       0.151000
     64 H13          8.1110    -5.7550    -8.1790 h4         1 MZ3       0.171000
     65 H6          12.6990    -1.6620    -2.8100 ha         1 MZ3       0.160000
     66 H201        14.4410    -0.8000     1.3610 h1         1 MZ3       0.042700
     67 H202        14.3500     0.7680     0.5480 h1         1 MZ3       0.042700
     68 H203        12.9100     0.0850     1.3170 h1         1 MZ3       0.042700
     69 H2          12.5440     1.6180    -0.0680 ha         1 MZ3       0.137000
     70 H3          11.1270     2.8690    -1.6500 ha         1 MZ3       0.137000
     71 H4          10.4730     1.8440    -3.7950 ha         1 MZ3       0.154000
@<TRIPOS>BOND
     1     1     2 1
     2     2     3 ar
     3     2     6 ar
     4     3     4 ar
     5     3    41 1
     6     4     5 ar
     7     4    42 1
     8     5     8 ar
     9     5    43 1
    10     6     8 ar
    11     6     7 1
    12     7    44 1
    13     7    45 1
    14     7    46 1
    15     8     9 1
    16     9    10 2
    17     9    11 1
    18    11    12 1
    19    11    47 1
    20    12    13 1
    21    12    20 1
    22    12    48 1
    23    13    14 1
    24    13    49 1
    25    13    50 1
    26    14    15 ar
    27    14    19 ar
    28    15    16 ar
    29    15    51 1
    30    16    17 ar
    31    16    52 1
    32    17    18 ar
    33    17    53 1
    34    18    19 ar
    35    18    54 1
    36    19    55 1
    37    20    22 1
    38    20    21 1
    39    20    56 1
    40    21    57 1
    41    22    23 1
    42    22    58 1
    43    22    59 1
    44    23    30 1
    45    23    24 1
    46    24    25 1
    47    24    60 1
    48    24    61 1
    49    25    29 1
    50    25    26 2
    51    26    27 1
    52    26    62 1
    53    27    28 2
    54    27    63 1
    55    28    29 1
    56    28    64 1
    57    30    31 2
    58    30    32 2
    59    30    33 1
    60    33    34 ar
    61    33    40 ar
    62    34    35 ar
    63    34    65 1
    64    35    36 1
    65    35    38 ar
    66    36    37 1
    67    37    66 1
    68    37    67 1
    69    37    68 1
    70    38    39 ar
    71    38    69 1
    72    39    40 ar
    73    39    70 1
    74    40    71 1
@<TRIPOS>SUBSTRUCTURE
     1 MZ3         1 TEMP              0 ****  ****    0 ROOT
