@<TRIPOS>MOLECULE
molecule
   70    73     1     0     0
SMALL
bcc


@<TRIPOS>ATOM
      1 O10          0.0000     0.0000     0.0000 o          1 MZ4      -0.627300
      2 S8           1.4210     0.0000     0.0000 sy         1 MZ4       1.418200
      3 O9           2.2000     0.0000     1.1890 o          1 MZ4      -0.627300
      4 C5           1.9190    -1.4180    -0.9200 ca         1 MZ4      -0.281500
      5 C4           1.0620    -1.9700    -1.8550 ca         1 MZ4      -0.071000
      6 C3           1.4490    -3.0820    -2.5780 ca         1 MZ4      -0.111000
      7 C2           2.6940    -3.6460    -2.3700 ca         1 MZ4      -0.172000
      8 C7           3.5560    -3.0930    -1.4340 ca         1 MZ4       0.119100
      9 O19          4.7800    -3.6440    -1.2260 os         1 MZ4      -0.323900
     10 C20          5.1150    -4.7920    -2.0080 c3         1 MZ4       0.127700
     11 C6           3.1660    -1.9740    -0.7120 ca         1 MZ4      -0.068000
     12 N11          1.8890     1.3330    -0.8650 n3         1 MZ4      -0.806500
     13 C12          0.9790     1.9240    -1.8500 c3         1 MZ4       0.316100
     14 C15          0.2100     3.0520    -1.2120 cc         1 MZ4      -0.070400
     15 S1          -1.3350     2.8860    -0.3860 ss         1 MZ4      -0.103800
     16 C13         -1.3690     4.6110    -0.0430 cc         1 MZ4      -0.078100
     17 C14         -0.2740     5.1880    -0.5400 cd         1 MZ4      -0.165000
     18 C18          0.5990     4.3270    -1.1810 cd         1 MZ4      -0.144000
     19 C16          3.2110     1.9230    -0.6430 c3         1 MZ4       0.228800
     20 C17          4.1970     1.3640    -1.6700 c3         1 MZ4       0.103100
     21 O18          3.8100     1.7840    -2.9800 oh         1 MZ4      -0.602800
     22 C19          5.6040     1.8830    -1.3630 c3         1 MZ4       0.103700
     23 C32          5.6400     3.4010    -1.5520 c3         1 MZ4      -0.045100
     24 C38          6.9870     3.9280    -1.1320 ca         1 MZ4      -0.073300
     25 C33          7.2010     4.3120     0.1790 ca         1 MZ4      -0.117000
     26 C34          8.4380     4.7960     0.5640 ca         1 MZ4      -0.120000
     27 C35          9.4610     4.8930    -0.3610 ca         1 MZ4      -0.125000
     28 C36          9.2460     4.5080    -1.6710 ca         1 MZ4      -0.120000
     29 C37          8.0110     4.0210    -2.0560 ca         1 MZ4      -0.117000
     30 N20          6.5650     1.2550    -2.2720 ns         1 MZ4      -0.581900
     31 C21          7.8580     1.1400    -1.9100 c          1 MZ4       0.673700
     32 O22          8.2270     1.5570    -0.8290 o          1 MZ4      -0.586100
     33 C22          8.8280     0.5070    -2.8260 ca         1 MZ4      -0.141600
     34 C23          8.4080     0.0320    -4.0700 ca         1 MZ4      -0.104000
     35 C24          9.3140    -0.5590    -4.9250 ca         1 MZ4      -0.166000
     36 C27         10.1690     0.3870    -2.4520 ca         1 MZ4      -0.082000
     37 C26         11.0720    -0.2060    -3.3130 ca         1 MZ4       0.079100
     38 O29         12.3780    -0.3240    -2.9520 oh         1 MZ4      -0.508100
     39 C25         10.6450    -0.6840    -4.5510 ca         1 MZ4       0.109100
     40 O28         11.5340    -1.2680    -5.3950 oh         1 MZ4      -0.512100
     41 H4           0.0860    -1.5310    -2.0200 ha         1 MZ4       0.151000
     42 H3           0.7760    -3.5130    -3.3100 ha         1 MZ4       0.138000
     43 H2           2.9970    -4.5170    -2.9370 ha         1 MZ4       0.140000
     44 H201         6.1120    -5.1280    -1.7480 h1         1 MZ4       0.044033
     45 H202         5.0840    -4.5350    -3.0600 h1         1 MZ4       0.044033
     46 H203         4.4040    -5.5850    -1.8090 h1         1 MZ4       0.044033
     47 H6           3.8380    -1.5400     0.0200 ha         1 MZ4       0.165000
     48 H121         0.2870     1.1680    -2.2010 h1         1 MZ4       0.071200
     49 H122         1.5510     2.3050    -2.6870 h1         1 MZ4       0.071200
     50 H13         -2.1590     5.1250     0.4900 h4         1 MZ4       0.169000
     51 H14         -0.0810     6.2500    -0.4450 ha         1 MZ4       0.146000
     52 H18          1.5260     4.6640    -1.6300 ha         1 MZ4       0.146000
     53 H161         3.5520     1.6790     0.3550 h1         1 MZ4       0.083700
     54 H162         3.1480     2.9990    -0.7510 h1         1 MZ4       0.083700
     55 H17          4.1930     0.2820    -1.6220 h1         1 MZ4       0.044700
     56 HO18         3.9290     1.0720    -3.5870 ho         1 MZ4       0.400000
     57 H19          5.8630     1.6400    -0.3400 h1         1 MZ4       0.092700
     58 H321         4.8680     3.8590    -0.9440 hc         1 MZ4       0.058700
     59 H322         5.4680     3.6400    -2.5940 hc         1 MZ4       0.058700
     60 H33          6.4000     4.2360     0.9040 ha         1 MZ4       0.123000
     61 H34          8.6060     5.0970     1.5910 ha         1 MZ4       0.125500
     62 H35         10.4290     5.2740    -0.0590 ha         1 MZ4       0.125000
     63 H36         10.0490     4.5830    -2.3950 ha         1 MZ4       0.125500
     64 H37          7.8440     3.7190    -3.0830 ha         1 MZ4       0.123000
     65 HN20         6.2580     0.8930    -3.1530 hn         1 MZ4       0.308500
     66 H23          7.3700     0.1290    -4.3640 ha         1 MZ4       0.126000
     67 H24          8.9860    -0.9290    -5.8890 ha         1 MZ4       0.143000
     68 H27         10.4830     0.6850    -1.4590 ha         1 MZ4       0.173000
     69 HO29        12.4890    -1.0950    -2.4210 ho         1 MZ4       0.426000
     70 HO28        11.7300    -0.6770    -6.1040 ho         1 MZ4       0.428000
@<TRIPOS>BOND
     1     1     2 2
     2     2     3 2
     3     2    12 1
     4     2     4 1
     5     4    11 ar
     6     4     5 ar
     7     5     6 ar
     8     5    41 1
     9     6     7 ar
    10     6    42 1
    11     7     8 ar
    12     7    43 1
    13     8    11 ar
    14     8     9 1
    15     9    10 1
    16    10    44 1
    17    10    45 1
    18    10    46 1
    19    11    47 1
    20    12    13 1
    21    12    19 1
    22    13    14 1
    23    13    48 1
    24    13    49 1
    25    14    15 1
    26    14    18 2
    27    15    16 1
    28    16    17 2
    29    16    50 1
    30    17    18 1
    31    17    51 1
    32    18    52 1
    33    19    20 1
    34    19    53 1
    35    19    54 1
    36    20    22 1
    37    20    21 1
    38    20    55 1
    39    21    56 1
    40    22    30 1
    41    22    23 1
    42    22    57 1
    43    23    24 1
    44    23    58 1
    45    23    59 1
    46    24    29 ar
    47    24    25 ar
    48    25    26 ar
    49    25    60 1
    50    26    27 ar
    51    26    61 1
    52    27    28 ar
    53    27    62 1
    54    28    29 ar
    55    28    63 1
    56    29    64 1
    57    30    31 1
    58    30    65 1
    59    31    32 2
    60    31    33 1
    61    33    36 ar
    62    33    34 ar
    63    34    35 ar
    64    34    66 1
    65    35    39 ar
    66    35    67 1
    67    36    37 ar
    68    36    68 1
    69    37    38 1
    70    37    39 ar
    71    38    69 1
    72    39    40 1
    73    40    70 1
@<TRIPOS>SUBSTRUCTURE
     1 MZ4         1 TEMP              0 ****  ****    0 ROOT
