@<TRIPOS>MOLECULE
molecule
   74    76     1     0     0
SMALL
bcc


@<TRIPOS>ATOM
      1 O22          0.0000     0.0000     0.0000 o          1 MZ5      -0.571100
      2 C21          1.2130     0.0000     0.0000 c          1 MZ5       0.639100
      3 C22          1.9670     0.0000     1.3050 c3         1 MZ5       0.082100
      4 C24          2.7120    -1.3260     1.4650 c3         1 MZ5      -0.079700
      5 C26          3.5700    -1.2800     2.7300 c3         1 MZ5      -0.087600
      6 C25          1.7010    -2.4690     1.5770 c3         1 MZ5      -0.087600
      7 O23          1.0460     0.1630     2.3860 oh         1 MZ5      -0.565800
      8 N20          1.8870    -0.0070    -1.1680 ns         1 MZ5      -0.589900
      9 C19          1.1590     0.1060    -2.4340 c3         1 MZ5       0.089700
     10 C32          1.6710     1.3210    -3.2100 c3         1 MZ5      -0.051100
     11 C38          1.3490     2.5780    -2.4420 ca         1 MZ5      -0.080300
     12 C37          2.2950     3.1360    -1.6030 ca         1 MZ5      -0.121000
     13 C36          1.9990     4.2890    -0.9000 ca         1 MZ5      -0.124500
     14 C35          0.7590     4.8840    -1.0360 ca         1 MZ5      -0.127000
     15 C34         -0.1860     4.3250    -1.8760 ca         1 MZ5      -0.124500
     16 C33          0.1100     3.1750    -2.5830 ca         1 MZ5      -0.121000
     17 C17          1.3830    -1.1600    -3.2640 c3         1 MZ5       0.109100
     18 O18          0.6730    -1.0500    -4.4990 oh         1 MZ5      -0.600800
     19 C16          0.8720    -2.3750    -2.4880 c3         1 MZ5       0.233800
     20 N11          1.2010    -3.5980    -3.2250 n3         1 MZ5      -0.810500
     21 C12          2.6010    -3.9960    -3.3960 c3         1 MZ5       0.236800
     22 C13          3.1660    -4.4620    -2.0530 c3         1 MZ5      -0.091700
     23 C14          2.4430    -5.7360    -1.6090 c3         1 MZ5      -0.085100
     24 C15          4.6620    -4.7510    -2.2020 c3         1 MZ5      -0.080400
     25 C18          5.2540    -5.0960    -0.8340 c3         1 MZ5      -0.091100
     26 S8          -0.0090    -4.5320    -3.8630 sy         1 MZ5       1.429200
     27 O10          0.5250    -5.8410    -4.0020 o          1 MZ5      -0.633300
     28 O9          -1.1780    -4.2460    -3.1080 o          1 MZ5      -0.633300
     29 C5          -0.3150    -3.9440    -5.4960 ca         1 MZ5      -0.299500
     30 C4           0.3790    -4.4760    -6.5600 ca         1 MZ5       0.021000
     31 C3           0.1370    -4.0110    -7.8500 ca         1 MZ5      -0.090100
     32 S1           0.8280    -4.4590    -9.4060 ss         1 MZ5      -0.103100
     33 C1          -0.1580    -3.3150   -10.2010 cc         1 MZ5       0.417100
     34 N1          -0.9070    -2.6870    -9.3770 nd         1 MZ5      -0.582100
     35 C2          -0.8090    -3.0050    -8.0720 ca         1 MZ5       0.160400
     36 C7          -1.5040    -2.4790    -6.9630 ca         1 MZ5      -0.097000
     37 C6          -1.2580    -2.9490    -5.7080 ca         1 MZ5      -0.018000
     38 H22          2.6780     0.8170     1.3110 h1         1 MZ5       0.042700
     39 H24          3.3480    -1.4900     0.6030 hc         1 MZ5       0.042700
     40 H261         4.2340    -2.1360     2.7480 hc         1 MZ5       0.042367
     41 H262         4.1560    -0.3680     2.7360 hc         1 MZ5       0.042367
     42 H263         2.9290    -1.3020     3.6030 hc         1 MZ5       0.042367
     43 H251         1.0300    -2.2780     2.4060 hc         1 MZ5       0.042367
     44 H252         2.2260    -3.4020     1.7450 hc         1 MZ5       0.042367
     45 H253         1.1290    -2.5370     0.6590 hc         1 MZ5       0.042367
     46 HO23         1.1640     1.0140     2.7740 ho         1 MZ5       0.405000
     47 HN20         2.8860    -0.0610    -1.1680 hn         1 MZ5       0.309500
     48 H19          0.1010     0.2240    -2.2340 h1         1 MZ5       0.115700
     49 H321         1.1910     1.3580    -4.1800 hc         1 MZ5       0.053200
     50 H322         2.7430     1.2420    -3.3390 hc         1 MZ5       0.053200
     51 H37          3.2670     2.6710    -1.4970 ha         1 MZ5       0.128000
     52 H36          2.7410     4.7270    -0.2420 ha         1 MZ5       0.130000
     53 H35          0.5270     5.7860    -0.4830 ha         1 MZ5       0.130000
     54 H34         -1.1580     4.7920    -1.9840 ha         1 MZ5       0.130000
     55 H33         -0.6300     2.7370    -3.2410 ha         1 MZ5       0.128000
     56 H17          2.4410    -1.2780    -3.4650 h1         1 MZ5       0.032700
     57 HO18         1.2510    -0.7210    -5.1670 ho         1 MZ5       0.406000
     58 H161        -0.2030    -2.3030    -2.3710 h1         1 MZ5       0.083700
     59 H162         1.3400    -2.4040    -1.5120 h1         1 MZ5       0.083700
     60 H121         2.6620    -4.8050    -4.1140 h1         1 MZ5       0.050700
     61 H122         3.1750    -3.1500    -3.7550 h1         1 MZ5       0.050700
     62 H13          3.0210    -3.6870    -1.3100 hc         1 MZ5       0.050700
     63 H141         2.5740    -6.5060    -2.3600 hc         1 MZ5       0.041367
     64 H142         1.3870    -5.5270    -1.4870 hc         1 MZ5       0.041367
     65 H143         2.8560    -6.0760    -0.6670 hc         1 MZ5       0.041367
     66 H151         5.1610    -3.8760    -2.6010 hc         1 MZ5       0.040200
     67 H152         4.8030    -5.5870    -2.8780 hc         1 MZ5       0.040200
     68 H181         4.6880    -4.5940    -0.0590 hc         1 MZ5       0.035033
     69 H182         6.2870    -4.7720    -0.7950 hc         1 MZ5       0.035033
     70 H183         5.2060    -6.1670    -0.6800 hc         1 MZ5       0.035033
     71 H4           1.0900    -5.2770    -6.3970 ha         1 MZ5       0.153000
     72 H1          -0.1500    -3.1430   -11.2700 h5         1 MZ5       0.070800
     73 H7          -2.2440    -1.7020    -7.1110 ha         1 MZ5       0.152000
     74 H6          -1.8080    -2.5450    -4.8680 ha         1 MZ5       0.162000
@<TRIPOS>BOND
     1     1     2 2
     2     2     3 1
     3     2     8 1
     4     3     4 1
     5     3     7 1
     6     3    38 1
     7     4     6 1
     8     4     5 1
     9     4    39 1
    10     5    40 1
    11     5    41 1
    12     5    42 1
    13     6    43 1
    14     6    44 1
    15     6    45 1
    16     7    46 1
    17     8     9 1
    18     8    47 1
    19     9    10 1
    20     9    17 1
    21     9    48 1
    22    10    11 1
    23    10    49 1
    24    10    50 1
    25    11    12 ar
    26    11    16 ar
    27    12    13 ar
    28    12    51 1
    29    13    14 ar
    30    13    52 1
    31    14    15 ar
    32    14    53 1
    33    15    16 ar
    34    15    54 1
    35    16    55 1
    36    17    19 1
    37    17    18 1
    38    17    56 1
    39    18    57 1
    40    19    20 1
    41    19    58 1
    42    19    59 1
    43    20    26 1
    44    20    21 1
    45    21    22 1
    46    21    60 1
    47    21    61 1
    48    22    23 1
    49    22    24 1
    50    22    62 1
    51    23    63 1
    52    23    64 1
    53    23    65 1
    54    24    25 1
    55    24    66 1
    56    24    67 1
    57    25    68 1
    58    25    69 1
    59    25    70 1
    60    26    28 2
    61    26    27 2
    62    26    29 1
    63    29    30 ar
    64    29    37 ar
    65    30    31 ar
    66    30    71 1
    67    31    32 1
    68    31    35 ar
    69    32    33 1
    70    33    34 2
    71    33    72 1
    72    34    35 1
    73    35    36 ar
    74    36    37 ar
    75    36    73 1
    76    37    74 1
@<TRIPOS>SUBSTRUCTURE
     1 MZ5         1 TEMP              0 ****  ****    0 ROOT
