@<TRIPOS>MOLECULE
molecule
   72    75     1     0     0
SMALL
bcc


@<TRIPOS>ATOM
      1 O22          0.0000     0.0000     0.0000 o          1 MZ6      -0.587100
      2 C21          1.2150     0.0000     0.0000 c          1 MZ6       0.672700
      3 C22          1.9550     0.0000     1.2800 ca         1 MZ6      -0.131600
      4 C27          1.2610    -0.0060     2.4900 ca         1 MZ6      -0.093000
      5 C26          1.9600    -0.0070     3.6850 ca         1 MZ6       0.097100
      6 O27          1.2880    -0.0130     4.8650 oh         1 MZ6      -0.518100
      7 C25          3.3490    -0.0020     3.6770 ca         1 MZ6      -0.133000
      8 C24          4.0380     0.0050     2.4780 ca         1 MZ6      -0.124000
      9 C23          3.3510     0.0000     1.2820 ca         1 MZ6      -0.119000
     10 N20          1.8890    -0.0060    -1.1670 ns         1 MZ6      -0.582900
     11 C19          1.1560    -0.0120    -2.4360 c3         1 MZ6       0.102700
     12 C32          0.7910     1.4240    -2.8220 c3         1 MZ6      -0.046100
     13 C38         -0.1710     1.9870    -1.8080 ca         1 MZ6      -0.070300
     14 C37          0.3090     2.6530    -0.6960 ca         1 MZ6      -0.117000
     15 C36         -0.5740     3.1700     0.2350 ca         1 MZ6      -0.120000
     16 C35         -1.9360     3.0220     0.0520 ca         1 MZ6      -0.126000
     17 C34         -2.4150     2.3570    -1.0600 ca         1 MZ6      -0.120000
     18 C33         -1.5330     1.8430    -1.9930 ca         1 MZ6      -0.117000
     19 C17          2.0320    -0.6270    -3.5290 c3         1 MZ6       0.105100
     20 O18          3.1700     0.2090    -3.7540 oh         1 MZ6      -0.603800
     21 C16          1.2250    -0.7470    -4.8230 c3         1 MZ6       0.231800
     22 N11          2.0180    -1.4560    -5.8300 n3         1 MZ6      -0.810500
     23 C12          2.3730    -2.8630    -5.6260 c3         1 MZ6       0.233800
     24 C13          1.1060    -3.7200    -5.6780 c3         1 MZ6      -0.090700
     25 C15          1.4540    -5.1670    -5.3220 c3         1 MZ6      -0.079400
     26 C18          0.1720    -5.9980    -5.2530 c3         1 MZ6      -0.090100
     27 C14          0.5150    -3.6700    -7.0890 c3         1 MZ6      -0.086100
     28 S8           2.5160    -0.6670    -7.1990 sy         1 MZ6       1.430200
     29 O10          2.7440    -1.6710    -8.1780 o          1 MZ6      -0.634300
     30 O9           1.6130     0.4140    -7.3880 o          1 MZ6      -0.634300
     31 C5           4.0850     0.0500    -6.8450 ca         1 MZ6      -0.303500
     32 C6           4.1580     1.3330    -6.3210 ca         1 MZ6      -0.019000
     33 C7           5.3630     1.9040    -6.0430 ca         1 MZ6      -0.097000
     34 C2           6.5600     1.1990    -6.2830 ca         1 MZ6       0.162400
     35 C3           6.4790    -0.0940    -6.8110 ca         1 MZ6      -0.091100
     36 C4           5.2370    -0.6650    -7.0850 ca         1 MZ6       0.022000
     37 N1           7.8370     1.5770    -6.0780 nc         1 MZ6      -0.583100
     38 C1           8.7610     0.7450    -6.3800 cd         1 MZ6       0.417100
     39 S1           8.1190    -0.7110    -6.9960 ss         1 MZ6      -0.098100
     40 H27          0.1810    -0.0890     2.4940 ha         1 MZ6       0.170000
     41 HO27         1.1220     0.8750     5.1370 ho         1 MZ6       0.423000
     42 H25          3.8940    -0.0000     4.6130 ha         1 MZ6       0.143000
     43 H24          5.1210     0.0080     2.4790 ha         1 MZ6       0.136000
     44 H23          3.8950     0.0060     0.3450 ha         1 MZ6       0.123000
     45 HN20         2.8890    -0.0510    -1.1670 hn         1 MZ6       0.309500
     46 H19          0.2510    -0.5970    -2.3270 h1         1 MZ6       0.087700
     47 H321         1.6880     2.0310    -2.8450 hc         1 MZ6       0.060700
     48 H322         0.3270     1.4280    -3.8010 hc         1 MZ6       0.060700
     49 H37          1.3770     2.7700    -0.5530 ha         1 MZ6       0.123500
     50 H36         -0.1980     3.6920     1.1070 ha         1 MZ6       0.124000
     51 H35         -2.6270     3.4250     0.7820 ha         1 MZ6       0.124000
     52 H34         -3.4830     2.2430    -1.2040 ha         1 MZ6       0.124000
     53 H33         -1.9090     1.3220    -2.8650 ha         1 MZ6       0.123500
     54 H17          2.3620    -1.6100    -3.2160 h1         1 MZ6       0.045700
     55 HO18         3.9170    -0.1500    -3.3050 ho         1 MZ6       0.403000
     56 H161         0.9790     0.2430    -5.1890 h1         1 MZ6       0.079200
     57 H162         0.3120    -1.2970    -4.6300 h1         1 MZ6       0.079200
     58 H121         3.0560    -3.1800    -6.4040 h1         1 MZ6       0.053200
     59 H122         2.8480    -2.9800    -4.6590 h1         1 MZ6       0.053200
     60 H13          0.3820    -3.3380    -4.9690 hc         1 MZ6       0.052700
     61 H151         1.9530    -5.1920    -4.3600 hc         1 MZ6       0.040700
     62 H152         2.1100    -5.5770    -6.0800 hc         1 MZ6       0.040700
     63 H181        -0.6280    -5.3950    -4.8400 hc         1 MZ6       0.036033
     64 H182        -0.1000    -6.3260    -6.2490 hc         1 MZ6       0.036033
     65 H183         0.3360    -6.8620    -4.6200 hc         1 MZ6       0.036033
     66 H141         0.2330    -2.6520    -7.3270 hc         1 MZ6       0.040700
     67 H142        -0.3600    -4.3070    -7.1360 hc         1 MZ6       0.040700
     68 H143         1.2520    -4.0170    -7.8020 hc         1 MZ6       0.040700
     69 H6           3.2470     1.8900    -6.1390 ha         1 MZ6       0.160000
     70 H7           5.4020     2.9070    -5.6340 ha         1 MZ6       0.153000
     71 H4           5.1810    -1.6460    -7.5410 ha         1 MZ6       0.154000
     72 H1           9.8200     0.9400    -6.2580 h5         1 MZ6       0.071800
@<TRIPOS>BOND
     1     1     2 2
     2     2     3 1
     3     2    10 1
     4     3     9 ar
     5     3     4 ar
     6     4     5 ar
     7     4    40 1
     8     5     7 ar
     9     5     6 1
    10     6    41 1
    11     7     8 ar
    12     7    42 1
    13     8     9 ar
    14     8    43 1
    15     9    44 1
    16    10    11 1
    17    10    45 1
    18    11    12 1
    19    11    19 1
    20    11    46 1
    21    12    13 1
    22    12    47 1
    23    12    48 1
    24    13    14 ar
    25    13    18 ar
    26    14    15 ar
    27    14    49 1
    28    15    16 ar
    29    15    50 1
    30    16    17 ar
    31    16    51 1
    32    17    18 ar
    33    17    52 1
    34    18    53 1
    35    19    21 1
    36    19    20 1
    37    19    54 1
    38    20    55 1
    39    21    22 1
    40    21    56 1
    41    21    57 1
    42    22    28 1
    43    22    23 1
    44    23    24 1
    45    23    58 1
    46    23    59 1
    47    24    27 1
    48    24    25 1
    49    24    60 1
    50    25    26 1
    51    25    61 1
    52    25    62 1
    53    26    63 1
    54    26    64 1
    55    26    65 1
    56    27    66 1
    57    27    67 1
    58    27    68 1
    59    28    30 2
    60    28    29 2
    61    28    31 1
    62    31    36 ar
    63    31    32 ar
    64    32    33 ar
    65    32    69 1
    66    33    34 ar
    67    33    70 1
    68    34    35 ar
    69    34    37 1
    70    35    36 ar
    71    35    39 1
    72    36    71 1
    73    37    38 2
    74    38    39 1
    75    38    72 1
@<TRIPOS>SUBSTRUCTURE
     1 MZ6         1 TEMP              0 ****  ****    0 ROOT
