@<TRIPOS>MOLECULE
MZ7
   80    82     1     0     0
SMALL
bcc


@<TRIPOS>ATOM
      1 O9           0.0000     0.0000     0.0000 o          1 MZ7      -0.587300
      2 S8           1.4210     0.0000     0.0000 sy         1 MZ7       1.051200
      3 O10          2.1980     0.0000     1.1890 o          1 MZ7      -0.587300
      4 C5           1.9180    -1.4190    -0.9200 ca         1 MZ7      -0.155500
      5 C6           1.0580    -1.9740    -1.8570 ca         1 MZ7      -0.011000
      6 C7           1.4260    -3.0700    -2.5760 ca         1 MZ7      -0.069000
      7 C4           3.1610    -1.9730    -0.7100 ca         1 MZ7       0.072000
      8 C3           3.5540    -3.0940    -1.4370 ca         1 MZ7      -0.065100
      9 C2           2.6890    -3.6630    -2.3800 ca         1 MZ7       0.113400
     10 N1           3.2400    -4.7360    -2.9800 nc         1 MZ7      -0.456100
     11 S1           5.0400    -4.0380    -1.4230 ss         1 MZ7      -0.186100
     12 C1           4.4180    -5.0810    -2.6230 cd         1 MZ7       0.437100
     13 N11          1.8890     1.3320    -0.8650 n3         1 MZ7      -0.522500
     14 C12          3.2110     1.9220    -0.6430 c3         1 MZ7       0.209800
     15 C13          4.1980     1.3610    -1.6710 c3         1 MZ7      -0.062400
     16 C14          5.5780     1.9770    -1.4390 c3         1 MZ7      -0.023400
     17 C15          6.5650     1.4170    -2.4650 c3         1 MZ7      -0.028400
     18 C18          7.9470     2.0330    -2.2340 c3         1 MZ7       0.006900
     19 C16          0.9800     1.9210    -1.8510 c3         1 MZ7       0.221800
     20 C17          0.1980     3.0680    -1.2040 c3         1 MZ7       0.151100
     21 O18          1.1010     4.1160    -0.8470 oh         1 MZ7      -0.587800
     22 C19         -0.8370     3.6010    -2.1950 c3         1 MZ7       0.003700
     23 N20         -1.6640     4.6160    -1.5370 ns         1 MZ7      -0.179900
     24 C21         -2.9100     4.8650    -1.9860 c          1 MZ7       0.570100
     25 O22         -3.3470     4.2490    -2.9350 o          1 MZ7      -0.642100
     26 C22         -3.7610     5.9090    -1.3100 c3         1 MZ7      -0.052300
     27 C23         -3.9660     5.5260     0.1570 c3         1 MZ7      -0.059700
     28 C25         -4.8310     6.5870     0.8450 c3         1 MZ7      -0.012100
     29 C24         -4.6660     4.1690     0.2370 c3         1 MZ7      -0.012100
     30 N26         -5.0610     5.9900    -1.9800 ns         1 MZ7      -0.171900
     31 C27         -5.7820     7.1260    -1.9190 c          1 MZ7       0.570100
     32 O28         -5.3540     8.0840    -1.3090 o          1 MZ7      -0.664100
     33 C29         -7.1200     7.2090    -2.6090 c3         1 MZ7      -0.065100
     34 C32         -0.1220     4.2260    -3.3950 c3         1 MZ7       0.009900
     35 C38         -1.1400     4.6410    -4.4260 ca         1 MZ7      -0.079300
     36 C33         -1.5310     3.7510    -5.4090 ca         1 MZ7      -0.093500
     37 C34         -2.4640     4.1310    -6.3550 ca         1 MZ7      -0.091500
     38 C35         -3.0070     5.4020    -6.3180 ca         1 MZ7      -0.101000
     39 C36         -2.6170     6.2930    -5.3340 ca         1 MZ7      -0.091500
     40 C37         -1.6870     5.9100    -4.3850 ca         1 MZ7      -0.093500
     41 H6           0.0810    -1.5340    -2.0140 ha         1 MZ7       0.126000
     42 H7           0.7420    -3.4900    -3.3040 ha         1 MZ7       0.120000
     43 H4           3.8030    -1.5830     0.0710 ha         1 MZ7       0.133000
     44 H1           4.9550    -5.9300    -3.0310 h5         1 MZ7       0.032800
     45 H121         3.1490     2.9980    -0.7520 h1         1 MZ7       0.042700
     46 H122         3.5530     1.6790     0.3550 h1         1 MZ7       0.042700
     47 H131         3.8560     1.6050    -2.6690 hc         1 MZ7       0.017200
     48 H132         4.2590     0.2850    -1.5620 hc         1 MZ7       0.017200
     49 H141         5.5170     3.0530    -1.5470 hc         1 MZ7       0.017200
     50 H142         5.9190     1.7340    -0.4400 hc         1 MZ7       0.017200
     51 H151         6.2240     1.6610    -3.4640 hc         1 MZ7       0.012200
     52 H152         6.6270     0.3410    -2.3570 hc         1 MZ7       0.012200
     53 H181         7.8880     3.1080    -2.3550 hc         1 MZ7       0.001367
     54 H182         8.2830     1.8000    -1.2310 hc         1 MZ7       0.001367
     55 H183         8.6480     1.6270    -2.9530 hc         1 MZ7       0.001367
     56 H161         1.5520     2.3020    -2.6880 h1         1 MZ7       0.034200
     57 H162         0.2870     1.1650    -2.2010 h1         1 MZ7       0.034200
     58 H17         -0.3050     2.7060    -0.3150 h1         1 MZ7       0.028700
     59 HO18         0.9990     4.3210     0.0680 ho         1 MZ7       0.394000
     60 H19         -1.4660     2.7860    -2.5330 h1         1 MZ7       0.068700
     61 HN20        -1.2930     5.1460    -0.7740 hn         1 MZ7       0.177500
     62 H22         -3.2660     6.8710    -1.3660 h1         1 MZ7       0.066700
     63 H23         -3.0050     5.4670     0.6530 hc         1 MZ7       0.021700
     64 H251        -4.7490     6.4780     1.9200 hc         1 MZ7       0.014033
     65 H252        -5.8640     6.4590     0.5470 hc         1 MZ7       0.014033
     66 H253        -4.4900     7.5740     0.5560 hc         1 MZ7       0.014033
     67 H241        -4.9390     3.9630     1.2650 hc         1 MZ7       0.014033
     68 H242        -5.5590     4.1860    -0.3770 hc         1 MZ7       0.014033
     69 H243        -3.9970     3.3960    -0.1210 hc         1 MZ7       0.014033
     70 HN26        -5.4010     5.2090    -2.5070 hn         1 MZ7       0.200500
     71 H291        -7.7230     6.3530    -2.3310 hc         1 MZ7       0.023033
     72 H292        -6.9730     7.2150    -3.6820 hc         1 MZ7       0.023033
     73 H293        -7.6250     8.1200    -2.3090 hc         1 MZ7       0.023033
     74 H321         0.5560     3.5010    -3.8290 hc         1 MZ7       0.031700
     75 H322         0.4370     5.0940    -3.0700 hc         1 MZ7       0.031700
     76 H33         -1.1050     2.7550    -5.4380 ha         1 MZ7       0.099000
     77 H34         -2.7700     3.4340    -7.1250 ha         1 MZ7       0.099000
     78 H35         -3.7370     5.7000    -7.0600 ha         1 MZ7       0.098000
     79 H36         -3.0440     7.2880    -5.3040 ha         1 MZ7       0.099000
     80 H37         -1.3810     6.6070    -3.6150 ha         1 MZ7       0.099000
@<TRIPOS>BOND
     1     1     2 2   
     2     2     3 2   
     3     2     4 1   
     4     2    13 1   
     5     4     5 ar  
     6     4     7 ar  
     7     5     6 ar  
     8     5    41 1   
     9     6     9 ar  
    10     6    42 1   
    11     7     8 ar  
    12     7    43 1   
    13     8     9 ar  
    14     8    11 1   
    15     9    10 1   
    16    10    12 2   
    17    11    12 1   
    18    12    44 1   
    19    13    14 1   
    20    13    19 1   
    21    14    15 1   
    22    14    45 1   
    23    14    46 1   
    24    15    16 1   
    25    15    47 1   
    26    15    48 1   
    27    16    17 1   
    28    16    49 1   
    29    16    50 1   
    30    17    18 1   
    31    17    51 1   
    32    17    52 1   
    33    18    53 1   
    34    18    54 1   
    35    18    55 1   
    36    19    20 1   
    37    19    56 1   
    38    19    57 1   
    39    20    21 1   
    40    20    22 1   
    41    20    58 1   
    42    21    59 1   
    43    22    23 1   
    44    22    34 1   
    45    22    60 1   
    46    23    24 1   
    47    23    61 1   
    48    24    25 2   
    49    24    26 1   
    50    26    27 1   
    51    26    30 1   
    52    26    62 1   
    53    27    28 1   
    54    27    29 1   
    55    27    63 1   
    56    28    64 1   
    57    28    65 1   
    58    28    66 1   
    59    29    67 1   
    60    29    68 1   
    61    29    69 1   
    62    30    31 1   
    63    30    70 1   
    64    31    32 2   
    65    31    33 1   
    66    33    71 1   
    67    33    72 1   
    68    33    73 1   
    69    34    35 1   
    70    34    74 1   
    71    34    75 1   
    72    35    36 ar  
    73    35    40 ar  
    74    36    37 ar  
    75    36    76 1   
    76    37    38 ar  
    77    37    77 1   
    78    38    39 ar  
    79    38    78 1   
    80    39    40 ar  
    81    39    79 1   
    82    40    80 1   
@<TRIPOS>SUBSTRUCTURE
     1 MZ7         1 TEMP              0 ****  ****    0 ROOT
