@<TRIPOS>MOLECULE
MZ8
   69    72     1     0     0
SMALL
bcc


@<TRIPOS>ATOM
      1 O9           0.0000     0.0000     0.0000 o          1 MZ8      -0.587800
      2 S8           1.4210     0.0000     0.0000 sy         1 MZ8       1.051200
      3 O10          2.1980     0.0000     1.1890 o          1 MZ8      -0.587800
      4 C5           1.9190    -1.4170    -0.9200 ca         1 MZ8      -0.157500
      5 C4           3.1090    -2.0440    -0.6280 ca         1 MZ8       0.074000
      6 C3           3.5030    -3.1650    -1.3550 ca         1 MZ8      -0.066100
      7 S1           4.9310    -4.1890    -1.2490 ss         1 MZ8      -0.185100
      8 C1           4.3620    -5.1590    -2.5330 cc         1 MZ8       0.437100
      9 N1           3.2330    -4.7440    -2.9690 nd         1 MZ8      -0.457100
     10 C2           2.6920    -3.6590    -2.3820 ca         1 MZ8       0.113400
     11 C7           1.4790    -2.9970    -2.6590 ca         1 MZ8      -0.069000
     12 C6           1.1070    -1.9060    -1.9350 ca         1 MZ8      -0.011000
     13 N11          1.8890     1.3340    -0.8650 n3         1 MZ8      -0.518500
     14 C12          3.1610     1.9940    -0.5610 c3         1 MZ8       0.215800
     15 C13          4.1040     1.8560    -1.7580 c3         1 MZ8      -0.080700
     16 C14          5.4040     2.6110    -1.4720 c3         1 MZ8      -0.002600
     17 C15          4.4150     0.3770    -1.9950 c3         1 MZ8      -0.002600
     18 C16          1.0300     1.8540    -1.9310 c3         1 MZ8       0.223800
     19 C17          0.1490     2.9740    -1.3760 c3         1 MZ8       0.149100
     20 O18          0.9700     4.0750    -0.9810 oh         1 MZ8      -0.584800
     21 C19         -0.8350     3.4320    -2.4550 c3         1 MZ8      -0.000300
     22 C32         -0.0610     4.0630    -3.6150 c3         1 MZ8       0.012900
     23 C38         -1.0170     4.4020    -4.7300 ca         1 MZ8      -0.079300
     24 C33         -1.2890     3.4700    -5.7140 ca         1 MZ8      -0.092500
     25 C34         -2.1650     3.7820    -6.7370 ca         1 MZ8      -0.090500
     26 C35         -2.7700     5.0240    -6.7760 ca         1 MZ8      -0.098000
     27 C36         -2.4980     5.9550    -5.7910 ca         1 MZ8      -0.090500
     28 C37         -1.6250     5.6420    -4.7650 ca         1 MZ8      -0.092500
     29 N20         -1.7560     4.4200    -1.8880 ns         1 MZ8      -0.192900
     30 C21         -2.9750     4.5960    -2.4360 c          1 MZ8       0.594700
     31 O22         -3.3100     3.9340    -3.4000 o          1 MZ8      -0.632100
     32 C22         -3.9060     5.5930    -1.8640 ca         1 MZ8      -0.133600
     33 C23         -3.5240     6.3530    -0.7580 ca         1 MZ8      -0.106000
     34 C24         -4.3950     7.2830    -0.2270 ca         1 MZ8      -0.088000
     35 C25         -5.6450     7.4650    -0.7880 ca         1 MZ8      -0.124000
     36 C26         -6.0340     6.7130    -1.8890 ca         1 MZ8       0.115100
     37 O27         -7.2640     6.8960    -2.4360 oh         1 MZ8      -0.497100
     38 C27         -5.1660     5.7810    -2.4320 ca         1 MZ8      -0.069000
     39 H4           3.7070    -1.7050     0.2090 ha         1 MZ8       0.136000
     40 H1           4.8900    -6.0180    -2.9280 h5         1 MZ8       0.031800
     41 H7           0.8330    -3.3650    -3.4480 ha         1 MZ8       0.121000
     42 H6           0.1650    -1.4150    -2.1500 ha         1 MZ8       0.124000
     43 H121         3.6110     1.5290     0.3090 h1         1 MZ8       0.041700
     44 H122         2.9850     3.0430    -0.3590 h1         1 MZ8       0.041700
     45 H13          3.6320     2.2710    -2.6400 hc         1 MZ8       0.032700
     46 H141         5.8990     2.1670    -0.6160 hc         1 MZ8       0.006367
     47 H142         5.1800     3.6490    -1.2620 hc         1 MZ8       0.006367
     48 H143         6.0550     2.5490    -2.3370 hc         1 MZ8       0.006367
     49 H151         5.2580     0.2890    -2.6700 hc         1 MZ8       0.006367
     50 H152         4.6570    -0.0970    -1.0520 hc         1 MZ8       0.006367
     51 H153         3.5510    -0.1080    -2.4320 hc         1 MZ8       0.006367
     52 H161         0.4030     1.0560    -2.3100 h1         1 MZ8       0.034200
     53 H162         1.6450     2.2430    -2.7330 h1         1 MZ8       0.034200
     54 H17         -0.4020     2.6090    -0.5170 h1         1 MZ8       0.030700
     55 HO18         0.6440     4.4370    -0.1730 ho         1 MZ8       0.390000
     56 H19         -1.3970     2.5790    -2.8160 h1         1 MZ8       0.067700
     57 H321         0.6820     3.3630    -3.9770 hc         1 MZ8       0.029700
     58 H322         0.4300     4.9660    -3.2730 hc         1 MZ8       0.029700
     59 H33         -0.8150     2.4970    -5.6840 ha         1 MZ8       0.098000
     60 H34         -2.3780     3.0520    -7.5080 ha         1 MZ8       0.098000
     61 H35         -3.4550     5.2680    -7.5780 ha         1 MZ8       0.098000
     62 H36         -2.9740     6.9290    -5.8190 ha         1 MZ8       0.098000
     63 H37         -1.4120     6.3720    -3.9930 ha         1 MZ8       0.098000
     64 HN20        -1.4960     4.9340    -1.0700 hn         1 MZ8       0.174500
     65 H23         -2.5450     6.2130    -0.3150 ha         1 MZ8       0.100000
     66 H24         -4.0970     7.8720     0.6320 ha         1 MZ8       0.105000
     67 H25         -6.3240     8.1970    -0.3670 ha         1 MZ8       0.113000
     68 HO27        -7.9020     6.4070    -1.9440 ho         1 MZ8       0.404000
     69 H27         -5.4680     5.1940    -3.2910 ha         1 MZ8       0.140000
@<TRIPOS>BOND
     1     1     2 2   
     2     2     3 2   
     3     2     4 1   
     4     2    13 1   
     5     4     5 ar  
     6     4    12 ar  
     7     5     6 ar  
     8     5    39 1   
     9     6     7 1   
    10     6    10 ar  
    11     7     8 1   
    12     8     9 2   
    13     8    40 1   
    14     9    10 1   
    15    10    11 ar  
    16    11    12 ar  
    17    11    41 1   
    18    12    42 1   
    19    13    14 1   
    20    13    18 1   
    21    14    15 1   
    22    14    43 1   
    23    14    44 1   
    24    15    16 1   
    25    15    17 1   
    26    15    45 1   
    27    16    46 1   
    28    16    47 1   
    29    16    48 1   
    30    17    49 1   
    31    17    50 1   
    32    17    51 1   
    33    18    19 1   
    34    18    52 1   
    35    18    53 1   
    36    19    20 1   
    37    19    21 1   
    38    19    54 1   
    39    20    55 1   
    40    21    22 1   
    41    21    29 1   
    42    21    56 1   
    43    22    23 1   
    44    22    57 1   
    45    22    58 1   
    46    23    24 ar  
    47    23    28 ar  
    48    24    25 ar  
    49    24    59 1   
    50    25    26 ar  
    51    25    60 1   
    52    26    27 ar  
    53    26    61 1   
    54    27    28 ar  
    55    27    62 1   
    56    28    63 1   
    57    29    30 1   
    58    29    64 1   
    59    30    31 2   
    60    30    32 1   
    61    32    33 ar  
    62    32    38 ar  
    63    33    34 ar  
    64    33    65 1   
    65    34    35 ar  
    66    34    66 1   
    67    35    36 ar  
    68    35    67 1   
    69    36    37 1   
    70    36    38 ar  
    71    37    68 1   
    72    38    69 1   
@<TRIPOS>SUBSTRUCTURE
     1 MZ8         1 TEMP              0 ****  ****    0 ROOT
