@<TRIPOS>MOLECULE
MZ9
   77    78     1     0     0
SMALL
bcc


@<TRIPOS>ATOM
      1 O22          0.0000     0.0000     0.0000 o          1 MZ9      -0.637100
      2 C21          1.2130     0.0000     0.0000 c          1 MZ9       0.569100
      3 C22          1.9660     0.0000     1.3050 c3         1 MZ9      -0.088400
      4 C23          0.9720     0.0010     2.4680 c3         1 MZ9      -0.111400
      5 C24          1.7250     0.0010     3.7740 c          1 MZ9       0.601100
      6 O25          2.9330     0.0010     3.7730 o          1 MZ9      -0.567100
      7 C26          0.9710     0.0020     5.0790 c3         1 MZ9      -0.120400
      8 C27          1.9650     0.0020     6.2410 c3         1 MZ9       0.014900
      9 N20          1.8870    -0.0060    -1.1670 ns         1 MZ9      -0.195900
     10 C19          1.1540    -0.0130    -2.4360 c3         1 MZ9      -0.001300
     11 C32          0.7920     1.4230    -2.8220 c3         1 MZ9       0.011900
     12 C38         -0.1710     1.9860    -1.8090 ca         1 MZ9      -0.076300
     13 C37          0.3080     2.6540    -0.6970 ca         1 MZ9      -0.093000
     14 C36         -0.5750     3.1710     0.2320 ca         1 MZ9      -0.092500
     15 C35         -1.9370     3.0230     0.0480 ca         1 MZ9      -0.100000
     16 C34         -2.4160     2.3570    -1.0640 ca         1 MZ9      -0.092500
     17 C33         -1.5330     1.8430    -1.9950 ca         1 MZ9      -0.093000
     18 C17          2.0320    -0.6290    -3.5280 c3         1 MZ9       0.146100
     19 O18          3.1700     0.2070    -3.7520 oh         1 MZ9      -0.584800
     20 C16          1.2250    -0.7500    -4.8210 c3         1 MZ9       0.210800
     21 N11          2.0190    -1.4600    -5.8280 n3         1 MZ9      -0.519500
     22 C12          2.3720    -2.8670    -5.6230 c3         1 MZ9       0.226800
     23 C13          1.1050    -3.7230    -5.6780 c3         1 MZ9      -0.077700
     24 C14          0.5160    -3.6720    -7.0890 c3         1 MZ9      -0.006100
     25 C15          1.4510    -5.1700    -5.3220 c3         1 MZ9      -0.021400
     26 C18          0.1670    -6.0000    -5.2550 c3         1 MZ9       0.002900
     27 S8           2.5200    -0.6720    -7.1950 sy         1 MZ9       1.057200
     28 O10          2.7480    -1.6740    -8.1760 o          1 MZ9      -0.589300
     29 O9           1.6190     0.4110    -7.3860 o          1 MZ9      -0.589300
     30 C5           4.0890     0.0440    -6.8400 ca         1 MZ9      -0.200500
     31 C6           5.2470    -0.6750    -7.0800 ca         1 MZ9       0.055000
     32 C7           6.4780    -0.1160    -6.8020 ca         1 MZ9      -0.214500
     33 C4           4.1640     1.3260    -6.3290 ca         1 MZ9       0.055000
     34 C3           5.3950     1.8900    -6.0500 ca         1 MZ9      -0.214500
     35 C2           6.5560     1.1690    -6.2840 ca         1 MZ9       0.199100
     36 O19          7.7670     1.7210    -6.0100 os         1 MZ9      -0.306900
     37 C20          7.7700     3.0470    -5.4770 c3         1 MZ9       0.245700
     38 H221         2.5890    -0.8850     1.3630 hc         1 MZ9       0.037700
     39 H222         2.5900     0.8840     1.3620 hc         1 MZ9       0.037700
     40 H231         0.3480    -0.8830     2.4110 hc         1 MZ9       0.051200
     41 H232         0.3490     0.8860     2.4100 hc         1 MZ9       0.051200
     42 H261         0.3490     0.8870     5.1360 hc         1 MZ9       0.033700
     43 H262         0.3480    -0.8820     5.1360 hc         1 MZ9       0.033700
     44 H271         2.5880    -0.8830     6.1840 hc         1 MZ9       0.008033
     45 H272         1.4240     0.0020     7.1790 hc         1 MZ9       0.008033
     46 H273         2.5880     0.8860     6.1840 hc         1 MZ9       0.008033
     47 HN20         2.8870    -0.0380    -1.1670 hn         1 MZ9       0.169500
     48 H19          0.2490    -0.5980    -2.3280 h1         1 MZ9       0.065700
     49 H321         1.6890     2.0290    -2.8430 hc         1 MZ9       0.034200
     50 H322         0.3290     1.4280    -3.8010 hc         1 MZ9       0.034200
     51 H37          1.3760     2.7700    -0.5530 ha         1 MZ9       0.099000
     52 H36         -0.1990     3.6930     1.1030 ha         1 MZ9       0.097500
     53 H35         -2.6290     3.4270     0.7770 ha         1 MZ9       0.098000
     54 H34         -3.4830     2.2420    -1.2090 ha         1 MZ9       0.097500
     55 H33         -1.9080     1.3210    -2.8670 ha         1 MZ9       0.099000
     56 H17          2.3620    -1.6120    -3.2140 h1         1 MZ9       0.013700
     57 HO18         3.9120    -0.1400    -3.2850 ho         1 MZ9       0.390000
     58 H161         0.3130    -1.3010    -4.6280 h1         1 MZ9       0.047200
     59 H162         0.9790     0.2390    -5.1880 h1         1 MZ9       0.047200
     60 H121         3.0560    -3.1850    -6.4010 h1         1 MZ9       0.022700
     61 H122         2.8450    -2.9840    -4.6560 h1         1 MZ9       0.022700
     62 H13          0.3800    -3.3400    -4.9700 hc         1 MZ9       0.029700
     63 H141         1.2780    -3.9470    -7.8090 hc         1 MZ9       0.012700
     64 H142        -0.3140    -4.3640    -7.1600 hc         1 MZ9       0.012700
     65 H143         0.1670    -2.6680    -7.2990 hc         1 MZ9       0.012700
     66 H151         2.1070    -5.5820    -6.0790 hc         1 MZ9       0.012700
     67 H152         1.9480    -5.1960    -4.3590 hc         1 MZ9       0.012700
     68 H181        -0.6280    -5.4000    -4.8300 hc         1 MZ9       0.003033
     69 H182        -0.1110    -6.3150    -6.2530 hc         1 MZ9       0.003033
     70 H183         0.3330    -6.8720    -4.6340 hc         1 MZ9       0.003033
     71 H6           5.1870    -1.6780    -7.4850 ha         1 MZ9       0.121500
     72 H7           7.3840    -0.6810    -6.9880 ha         1 MZ9       0.123500
     73 H4           3.2570     1.8900    -6.1460 ha         1 MZ9       0.121500
     74 H3           5.4520     2.8940    -5.6470 ha         1 MZ9       0.123500
     75 H201         7.2240     3.0620    -4.5410 h1         1 MZ9       0.000033
     76 H202         7.2960     3.7200    -6.1820 h1         1 MZ9       0.000033
     77 H203         8.7910     3.3650    -5.3050 h1         1 MZ9       0.000033
@<TRIPOS>BOND
     1     1     2 2   
     2     2     3 1   
     3     2     9 1   
     4     3     4 1   
     5     3    38 1   
     6     3    39 1   
     7     4     5 1   
     8     4    40 1   
     9     4    41 1   
    10     5     6 2   
    11     5     7 1   
    12     7     8 1   
    13     7    42 1   
    14     7    43 1   
    15     8    44 1   
    16     8    45 1   
    17     8    46 1   
    18     9    10 1   
    19     9    47 1   
    20    10    11 1   
    21    10    18 1   
    22    10    48 1   
    23    11    12 1   
    24    11    49 1   
    25    11    50 1   
    26    12    13 ar  
    27    12    17 ar  
    28    13    14 ar  
    29    13    51 1   
    30    14    15 ar  
    31    14    52 1   
    32    15    16 ar  
    33    15    53 1   
    34    16    17 ar  
    35    16    54 1   
    36    17    55 1   
    37    18    19 1   
    38    18    20 1   
    39    18    56 1   
    40    19    57 1   
    41    20    21 1   
    42    20    58 1   
    43    20    59 1   
    44    21    22 1   
    45    21    27 1   
    46    22    23 1   
    47    22    60 1   
    48    22    61 1   
    49    23    24 1   
    50    23    25 1   
    51    23    62 1   
    52    24    63 1   
    53    24    64 1   
    54    24    65 1   
    55    25    26 1   
    56    25    66 1   
    57    25    67 1   
    58    26    68 1   
    59    26    69 1   
    60    26    70 1   
    61    27    28 2   
    62    27    29 2   
    63    27    30 1   
    64    30    31 ar  
    65    30    33 ar  
    66    31    32 ar  
    67    31    71 1   
    68    32    35 ar  
    69    32    72 1   
    70    33    34 ar  
    71    33    73 1   
    72    34    35 ar  
    73    34    74 1   
    74    35    36 1   
    75    36    37 1   
    76    37    75 1   
    77    37    76 1   
    78    37    77 1   
@<TRIPOS>SUBSTRUCTURE
     1 MZ9         1 TEMP              0 ****  ****    0 ROOT
