@<TRIPOS>MOLECULE
MZA
   53    57     1     0     0
SMALL
bcc


@<TRIPOS>ATOM
      1 F1           0.0000     0.0000     0.0000 f          1 MZA      -0.124900
      2 C7           1.3520     0.0000     0.0000 ca         1 MZA       0.119900
      3 C6           2.0420     0.0000     1.2020 ca         1 MZA      -0.092300
      4 C5           1.2520     0.0040     2.4850 c3         1 MZA       0.038900
      5 C1           2.1480    -0.4110     3.6530 c3         1 MZA       0.142800
      6 N1           3.3740     0.4010     3.6120 n7         1 MZA      -0.579200
      7 C3           4.2160    -0.0080     2.4830 c3         1 MZA       0.203100
      8 C11          3.4210    -0.0010     1.2020 ca         1 MZA      -0.046300
      9 C10          4.1120     0.0010    -0.0010 ca         1 MZA      -0.106000
     10 C9           3.4300     0.0020    -1.2000 ca         1 MZA      -0.066000
     11 C8           2.0430    -0.0050    -1.2050 ca         1 MZA      -0.101400
     12 N2           1.3420    -0.0130    -2.4180 n          1 MZA      -0.028000
     13 C25          0.9640    -1.1260    -3.0690 c          1 MZA       0.598500
     14 O3           1.1730    -2.2590    -2.6870 o          1 MZA      -0.651500
     15 C12          0.9220     1.1950    -3.1380 c3         1 MZA       0.041000
     16 C13          0.5980     0.7260    -4.5740 c3         1 MZA      -0.041400
     17 C14          0.2400    -0.7620    -4.3460 c3         1 MZA       0.114500
     18 N3          -1.2060    -0.9170    -4.1770 n7         1 MZA      -0.561100
     19 S1          -1.9540    -2.3090    -4.6720 sy         1 MZA       1.040200
     20 O1          -3.3290    -2.1660    -4.3440 o          1 MZA      -0.587800
     21 O2          -1.4920    -2.5650    -5.9920 o          1 MZA      -0.587800
     22 C15         -1.3360    -3.6190    -3.6670 ca         1 MZA      -0.143500
     23 C24         -1.9720    -3.9280    -2.5040 ca         1 MZA       0.040000
     24 C16         -0.2070    -4.3260    -4.0790 ca         1 MZA       0.009000
     25 C17          0.2950    -5.3430    -3.3260 ca         1 MZA      -0.101000
     26 C18         -0.3310    -5.6870    -2.1170 ca         1 MZA       0.020000
     27 C19          0.1580    -6.7320    -1.3140 ca         1 MZA      -0.100000
     28 C20         -0.4760    -7.0380    -0.1470 ca         1 MZA      -0.014600
     29 Cl1          0.1330    -8.3280     0.8430 cl         1 MZA      -0.032400
     30 C23         -1.4820    -4.9720    -1.7010 ca         1 MZA      -0.075000
     31 C22         -2.1120    -5.3200    -0.4930 ca         1 MZA      -0.055000
     32 C21         -1.6050    -6.3300     0.2640 ca         1 MZA      -0.116000
     33 H51C         0.8670     1.0000     2.6660 hc         1 MZA       0.032700
     34 H52C         0.4280    -0.6950     2.4000 hc         1 MZA       0.032700
     35 H11C         1.6290    -0.2380     4.5880 h1         1 MZA       0.011200
     36 H12C         2.4030    -1.4600     3.5600 h1         1 MZA       0.011200
     37 H1           3.8810     0.2830     4.4660 hn         1 MZA       0.255800
     38 H31C         5.0310     0.6990     2.3870 h1         1 MZA       0.018700
     39 H32C         4.5700    -1.0150     2.6640 h1         1 MZA       0.018700
     40 H10          5.1950     0.0060     0.0010 ha         1 MZA       0.111000
     41 H9           3.9770    -0.0020    -2.1360 ha         1 MZA       0.113000
     42 H121         1.7280     1.9190    -3.1550 h1         1 MZA       0.023200
     43 H122         0.0390     1.6180    -2.6750 h1         1 MZA       0.023200
     44 H14          0.6000    -1.3680    -5.1690 h1         1 MZA       0.071700
     45 H131         1.4660     0.8190    -5.2150 hc         1 MZA       0.037200
     46 H132        -0.2500     1.2680    -4.9740 hc         1 MZA       0.037200
     47 H3          -1.7480    -0.1680    -3.7930 hn         1 MZA       0.350800
     48 H24         -2.9100    -3.4470    -2.2550 ha         1 MZA       0.124000
     49 H16          0.2740    -4.0650    -5.0130 ha         1 MZA       0.118000
     50 H17          1.1730    -5.8840    -3.6580 ha         1 MZA       0.110000
     51 H19          0.9640    -7.3600    -1.6730 ha         1 MZA       0.120000
     52 H21         -2.0900    -6.5940     1.1960 ha         1 MZA       0.114000
     53 H22         -2.9890    -4.7790    -0.1610 ha         1 MZA       0.109000
@<TRIPOS>BOND
     1     1     2 1   
     2     2     3 ar  
     3     2    11 ar  
     4     3     4 1   
     5     3     8 ar  
     6     4     5 1   
     7     4    33 1   
     8     4    34 1   
     9     5     6 1   
    10     5    35 1   
    11     5    36 1   
    12     6     7 1   
    13     6    37 1   
    14     7     8 1   
    15     7    38 1   
    16     7    39 1   
    17     8     9 ar  
    18     9    10 ar  
    19     9    40 1   
    20    10    11 ar  
    21    10    41 1   
    22    11    12 1   
    23    12    13 1   
    24    12    15 1   
    25    13    14 2   
    26    13    17 1   
    27    15    16 1   
    28    15    42 1   
    29    15    43 1   
    30    16    17 1   
    31    16    45 1   
    32    16    46 1   
    33    17    18 1   
    34    17    44 1   
    35    18    19 1   
    36    18    47 1   
    37    19    20 2   
    38    19    21 2   
    39    19    22 1   
    40    22    23 ar  
    41    22    24 ar  
    42    23    30 ar  
    43    23    48 1   
    44    24    25 ar  
    45    24    49 1   
    46    25    26 ar  
    47    25    50 1   
    48    26    27 ar  
    49    26    30 ar  
    50    27    28 ar  
    51    27    51 1   
    52    28    29 1   
    53    28    32 ar  
    54    30    31 ar  
    55    31    32 ar  
    56    31    53 1   
    57    32    52 1   
@<TRIPOS>SUBSTRUCTURE
     1 MZA         1 TEMP              0 ****  ****    0 ROOT
