@<TRIPOS>MOLECULE
molecule
   53    57     1     0     0
SMALL
bcc


@<TRIPOS>ATOM
      1 F1           0.0000     0.0000     0.0000 f          1 MZA      -0.134900
      2 C7           1.3520     0.0000     0.0000 ca         1 MZA       0.139900
      3 C6           2.0420     0.0000     1.2020 ca         1 MZA      -0.095300
      4 C5           1.2520     0.0040     2.4850 c3         1 MZA      -0.026100
      5 C1           2.1480    -0.4110     3.6530 c3         1 MZA       0.153800
      6 N1           3.3740     0.4010     3.6120 n7         1 MZA      -0.814200
      7 C3           4.2160    -0.0080     2.4830 c3         1 MZA       0.202100
      8 C11          3.4210    -0.0010     1.2020 ca         1 MZA      -0.045300
      9 C10          4.1120     0.0010    -0.0010 ca         1 MZA      -0.138000
     10 C9           3.4300     0.0020    -1.2000 ca         1 MZA      -0.098000
     11 C8           2.0430    -0.0050    -1.2050 ca         1 MZA       0.019600
     12 N2           1.3420    -0.0130    -2.4180 n          1 MZA      -0.401000
     13 C25          0.9640    -1.1260    -3.0690 c          1 MZA       0.684500
     14 O3           1.1730    -2.2590    -2.6870 o          1 MZA      -0.601500
     15 C12          0.9220     1.1950    -3.1380 c3         1 MZA       0.098000
     16 C13          0.5980     0.7260    -4.5740 c3         1 MZA      -0.103400
     17 C14          0.2400    -0.7620    -4.3460 c3         1 MZA       0.161500
     18 N3          -1.2060    -0.9170    -4.1770 n7         1 MZA      -0.896100
     19 S1          -1.9540    -2.3090    -4.6720 sy         1 MZA       1.421200
     20 O1          -3.3290    -2.1660    -4.3440 o          1 MZA      -0.635800
     21 O2          -1.4920    -2.5650    -5.9920 o          1 MZA      -0.635800
     22 C15         -1.3360    -3.6190    -3.6670 ca         1 MZA      -0.299500
     23 C24         -1.9720    -3.9280    -2.5040 ca         1 MZA       0.010000
     24 C16         -0.2070    -4.3260    -4.0790 ca         1 MZA      -0.025000
     25 C17          0.2950    -5.3430    -3.3260 ca         1 MZA      -0.119000
     26 C18         -0.3310    -5.6870    -2.1170 ca         1 MZA       0.019000
     27 C19          0.1580    -6.7320    -1.3140 ca         1 MZA      -0.123000
     28 C20         -0.4760    -7.0380    -0.1470 ca         1 MZA       0.048400
     29 Cl1          0.1330    -8.3280     0.8430 cl         1 MZA      -0.110400
     30 C23         -1.4820    -4.9720    -1.7010 ca         1 MZA      -0.065000
     31 C22         -2.1120    -5.3200    -0.4930 ca         1 MZA      -0.088000
     32 C21         -1.6050    -6.3300     0.2640 ca         1 MZA      -0.136000
     33 H51C         0.8670     1.0000     2.6660 hc         1 MZA       0.065200
     34 H52C         0.4280    -0.6950     2.4000 hc         1 MZA       0.065200
     35 H11C         1.6290    -0.2380     4.5880 h1         1 MZA       0.039200
     36 H12C         2.4030    -1.4600     3.5600 h1         1 MZA       0.039200
     37 H1           3.8810     0.2830     4.4660 hn         1 MZA       0.357800
     38 H31C         5.0310     0.6990     2.3870 h1         1 MZA       0.049700
     39 H32C         4.5700    -1.0150     2.6640 h1         1 MZA       0.049700
     40 H10          5.1950     0.0060     0.0010 ha         1 MZA       0.138000
     41 H9           3.9770    -0.0020    -2.1360 ha         1 MZA       0.144000
     42 H121         1.7280     1.9190    -3.1550 h1         1 MZA       0.055200
     43 H122         0.0390     1.6180    -2.6750 h1         1 MZA       0.055200
     44 H14          0.6000    -1.3680    -5.1690 h1         1 MZA       0.103700
     45 H131         1.4660     0.8190    -5.2150 hc         1 MZA       0.071200
     46 H132        -0.2500     1.2680    -4.9740 hc         1 MZA       0.071200
     47 H3          -1.7480    -0.1680    -3.7930 hn         1 MZA       0.458800
     48 H24         -2.9100    -3.4470    -2.2550 ha         1 MZA       0.152000
     49 H16          0.2740    -4.0650    -5.0130 ha         1 MZA       0.145000
     50 H17          1.1730    -5.8840    -3.6580 ha         1 MZA       0.139000
     51 H19          0.9640    -7.3600    -1.6730 ha         1 MZA       0.149000
     52 H21         -2.0900    -6.5940     1.1960 ha         1 MZA       0.143000
     53 H22         -2.9890    -4.7790    -0.1610 ha         1 MZA       0.141000
@<TRIPOS>BOND
     1     1     2 1
     2     2     3 ar
     3     2    11 ar
     4     3     4 1
     5     3     8 ar
     6     4     5 1
     7     5     6 1
     8     6     7 1
     9     7     8 1
    10     8     9 ar
    11     9    10 ar
    12    10    11 ar
    13    11    12 1
    14    12    13 1
    15    12    15 1
    16    13    14 2
    17    13    17 1
    18    15    16 1
    19    16    17 1
    20    17    18 1
    21    18    19 1
    22    19    20 2
    23    19    21 2
    24    19    22 1
    25    22    23 ar
    26    22    24 ar
    27    23    30 ar
    28    24    25 ar
    29    25    26 ar
    30    26    27 ar
    31    26    30 ar
    32    27    28 ar
    33    28    29 1
    34    28    32 ar
    35    30    31 ar
    36    31    32 ar
    37     4    33 1
    38     4    34 1
    39     5    35 1
    40     5    36 1
    41     6    37 1
    42     7    38 1
    43     7    39 1
    44     9    40 1
    45    10    41 1
    46    15    42 1
    47    15    43 1
    48    17    44 1
    49    16    45 1
    50    16    46 1
    51    18    47 1
    52    23    48 1
    53    24    49 1
    54    25    50 1
    55    27    51 1
    56    32    52 1
    57    31    53 1
@<TRIPOS>SUBSTRUCTURE
     1 MZA         1 TEMP              0 ****  ****    0 ROOT
