@<TRIPOS>MOLECULE
molecule
   26    26     1     0     0
SMALL
bcc


@<TRIPOS>ATOM
      1 O6           0.0000     0.0000     0.0000 o          1 MZB      -0.495200
      2 S6           1.4210     0.0000     0.0000 s4         1 MZB       0.274600
      3 C7           2.0250    -1.5820    -0.6470 c3         1 MZB      -0.079800
      4 C1           2.0260     0.0000     1.7100 c3         1 MZB      -0.122400
      5 C5           1.7030     1.3490     2.3850 c3         1 MZB       0.126500
      6 N5           0.4870     1.2370     3.2020 nz         1 MZB      -0.799600
      7 C4           2.9350     1.6280     3.2820 c3         1 MZB       0.118100
      8 O4           2.8510     0.8920     4.5030 oh         1 MZB      -0.579800
      9 C3           4.1120     1.1200     2.4140 c3         1 MZB       0.123100
     10 O3           5.2350     0.7950     3.2340 oh         1 MZB      -0.548800
     11 C2           3.5570    -0.1460     1.7280 c3         1 MZB       0.183100
     12 O2           3.9300    -1.3080     2.4710 oh         1 MZB      -0.558800
     13 H7           1.4200    -1.8810    -1.4950 h1         1 MZB       0.096367
     14 H7A          3.0570    -1.4740    -0.9600 h1         1 MZB       0.096367
     15 H7B          1.9600    -2.3380     0.1270 h1         1 MZB       0.096367
     16 H1           1.5720    -0.8090     2.2690 h1         1 MZB       0.116700
     17 H5           1.5950     2.1270     1.6390 hx         1 MZB       0.113700
     18 HN5          0.3890     2.0570     3.7690 hn         1 MZB       0.463467
     19 HN5A         0.5540     0.4310     3.7910 hn         1 MZB       0.463467
     20 H4           3.0340     2.6900     3.4730 h1         1 MZB       0.063700
     21 HO4          3.1080     1.4450     5.2220 ho         1 MZB       0.437000
     22 H3           4.3800     1.8620     1.6710 h1         1 MZB       0.057700
     23 HO3          5.9720     1.3280     2.9830 ho         1 MZB       0.417000
     24 H2           3.9330    -0.2120     0.7150 h1         1 MZB       0.049700
     25 HO2          4.5930    -1.7840     1.9990 ho         1 MZB       0.424000
     26 H53         -0.3110     1.1540     2.6030 hn         1 MZB       0.463467
@<TRIPOS>BOND
     1     2     1 2
     2     2     4 1
     3     3     2 1
     4     3    13 1
     5     3    14 1
     6     3    15 1
     7     4     5 1
     8     4    16 1
     9     5     7 1
    10     5     6 1
    11     5    17 1
    12     6    18 1
    13     6    19 1
    14     7     8 1
    15     7    20 1
    16     8    21 1
    17     9     7 1
    18     9    22 1
    19    10     9 1
    20    10    23 1
    21    11     4 1
    22    11     9 1
    23    11    24 1
    24    12    11 1
    25    12    25 1
    26    26     6 1
@<TRIPOS>SUBSTRUCTURE
     1 MZB         1 TEMP              0 ****  ****    0 ROOT
