@<TRIPOS>MOLECULE
molecule
   37    38     1     0     0
SMALL
bcc


@<TRIPOS>ATOM
      1 C1           0.0000     0.0000     0.0000 ca         1 MZC      -0.071000
      2 N1           3.4440    -0.0000     0.9100 na         1 MZC      -0.181400
      3 C2           1.3970     0.0000     0.0000 ca         1 MZC      -0.081800
      4 N2           1.7100     1.4350    -4.4680 ns         1 MZC      -0.592900
      5 O2          -2.1640     1.3110    -0.5860 o          1 MZC      -0.594000
      6 C3           2.1000     0.0000     1.2180 ca         1 MZC      -0.049200
      7 O3          -4.1050     0.5600     0.1840 os         1 MZC      -0.442900
      8 C4           1.3950     0.0000     2.4170 ca         1 MZC      -0.128000
      9 C5           0.0190    -0.0000     2.4070 ca         1 MZC      -0.131000
     10 C6          -0.6820     0.0060     1.2020 ca         1 MZC       0.037600
     11 C7           2.4140    -0.0010    -1.0550 cc         1 MZC      -0.153400
     12 C8           3.6100    -0.0010    -0.4470 cd         1 MZC      -0.089100
     13 C10          2.1620    -0.0020    -2.5410 c3         1 MZC      -0.018200
     14 C11          1.9530     1.4350    -3.0240 c3         1 MZC       0.111000
     15 C13          1.4970     2.5970    -5.1170 c          1 MZC       0.654100
     16 C14          1.2460     2.5960    -6.6020 c3         1 MZC      -0.172100
     17 C17         -2.7630     0.6490     0.2390 c          1 MZC       0.745100
     18 C18         -4.7710     1.2790    -0.8870 c3         1 MZC       0.158700
     19 OXT          1.5070     3.6440    -4.5040 o          1 MZC      -0.606100
     20 H1          -0.5410    -0.1320    -0.9290 ha         1 MZC       0.157000
     21 HN2          1.7050     0.5710    -4.9750 hn         1 MZC       0.307500
     22 HN3         -2.5800    -0.5030     1.9140 hn         1 MZC       0.330500
     23 H4           1.9290    -0.0050     3.3590 ha         1 MZC       0.129000
     24 H5          -0.5250     0.0040     3.3440 ha         1 MZC       0.133000
     25 H8           4.5670    -0.0010    -0.9560 h4         1 MZC       0.166000
     26 H10          1.2770    -0.5880    -2.7570 hc         1 MZC       0.046700
     27 H10A         3.0150    -0.4340    -3.0510 hc         1 MZC       0.046700
     28 H11          2.8380     2.0220    -2.8070 h1         1 MZC       0.062200
     29 H11A         1.1000     1.8670    -2.5140 h1         1 MZC       0.062200
     30 H14          0.3620     2.0080    -6.8180 hc         1 MZC       0.058700
     31 H14A         1.0960     3.6130    -6.9440 hc         1 MZC       0.058700
     32 H14B         2.1000     2.1660    -7.1120 hc         1 MZC       0.058700
     33 H18         -5.8440     1.1840    -0.7740 h1         1 MZC       0.051033
     34 H18A        -4.4950     2.3260    -0.8460 h1         1 MZC       0.051033
     35 H18B        -4.4710     0.8640    -1.8420 h1         1 MZC       0.051033
     36 HN1          4.1870    -0.0000     1.5810 hn         1 MZC       0.296700
     37 N3          -2.0840     0.0050     1.2090 ns         1 MZC      -0.461100
@<TRIPOS>BOND
     1    10     1 ar
     2     3     1 ar
     3     1    20 1
     4     6     2 1
     5     2    12 1
     6     6     3 ar
     7     3    11 1
     8    14     4 1
     9     4    15 1
    10     4    21 1
    11    17     5 2
    12     8     6 ar
    13    10    37 1
    14    37    17 1
    15    37    22 1
    16    18     7 1
    17    17     7 1
    18     8     9 ar
    19     8    23 1
    20     9    10 ar
    21     9    24 1
    22    12    11 2
    23    11    13 1
    24    12    25 1
    25    14    13 1
    26    13    26 1
    27    13    27 1
    28    14    28 1
    29    14    29 1
    30    16    15 1
    31    15    19 2
    32    16    30 1
    33    16    31 1
    34    16    32 1
    35    18    33 1
    36    18    34 1
    37    18    35 1
    38     2    36 1
@<TRIPOS>SUBSTRUCTURE
     1 MZC         1 TEMP              0 ****  ****    0 ROOT
