@<TRIPOS>MOLECULE
MZC
   37    38     1     0     0
SMALL
bcc


@<TRIPOS>ATOM
      1 C1           0.0000     0.0000     0.0000 ca         1 MZC      -0.031000
      2 N1           3.4440    -0.0000     0.9100 na         1 MZC       0.357600
      3 C2           1.3970     0.0000     0.0000 ca         1 MZC      -0.077800
      4 N2           1.7100     1.4350    -4.4680 ns         1 MZC      -0.204900
      5 O2          -2.1640     1.3110    -0.5860 o          1 MZC      -0.644000
      6 C3           2.1000     0.0000     1.2180 ca         1 MZC      -0.234200
      7 O3          -4.1050     0.5600     0.1840 os         1 MZC      -0.431900
      8 C4           1.3950     0.0000     2.4170 ca         1 MZC      -0.085000
      9 C5           0.0190    -0.0000     2.4070 ca         1 MZC      -0.106000
     10 C6          -0.6820     0.0060     1.2020 ca         1 MZC      -0.120400
     11 C7           2.4140    -0.0010    -1.0550 cc         1 MZC      -0.148400
     12 C8           3.6100    -0.0010    -0.4470 cd         1 MZC      -0.259100
     13 C10          2.1620    -0.0020    -2.5410 c3         1 MZC       0.060800
     14 C11          1.9530     1.4350    -3.0240 c3         1 MZC       0.044000
     15 C13          1.4970     2.5970    -5.1170 c          1 MZC       0.568100
     16 C14          1.2460     2.5960    -6.6020 c3         1 MZC      -0.068100
     17 C17         -2.7630     0.6490     0.2390 c          1 MZC       0.660100
     18 C18         -4.7710     1.2790    -0.8870 c3         1 MZC       0.287700
     19 OXT          1.5070     3.6440    -4.5040 o          1 MZC      -0.645100
     20 H1          -0.5410    -0.1320    -0.9290 ha         1 MZC       0.131000
     21 HN2          1.7050     0.5710    -4.9750 hn         1 MZC       0.169500
     22 HN3         -2.5800    -0.5030     1.9140 hn         1 MZC       0.165500
     23 H4           1.9290    -0.0050     3.3590 ha         1 MZC       0.100000
     24 H5          -0.5250     0.0040     3.3440 ha         1 MZC       0.104000
     25 H8           4.5670    -0.0010    -0.9560 h4         1 MZC       0.141000
     26 H10          1.2770    -0.5880    -2.7570 hc         1 MZC       0.013200
     27 H10A         3.0150    -0.4340    -3.0510 hc         1 MZC       0.013200
     28 H11          2.8380     2.0220    -2.8070 h1         1 MZC       0.035200
     29 H11A         1.1000     1.8670    -2.5140 h1         1 MZC       0.035200
     30 H14          0.3620     2.0080    -6.8180 hc         1 MZC       0.020700
     31 H14A         1.0960     3.6130    -6.9440 hc         1 MZC       0.020700
     32 H14B         2.1000     2.1660    -7.1120 hc         1 MZC       0.020700
     33 H18         -5.8440     1.1840    -0.7740 h1         1 MZC       0.000367
     34 H18A        -4.4950     2.3260    -0.8460 h1         1 MZC       0.000367
     35 H18B        -4.4710     0.8640    -1.8420 h1         1 MZC       0.000367
     36 HN1          4.1870    -0.0000     1.5810 hn         1 MZC       0.113700
     37 N3          -2.0840     0.0050     1.2090 ns         1 MZC      -0.004100
@<TRIPOS>BOND
     1     1     3 ar  
     2     1    10 ar  
     3     1    20 1   
     4     2     6 1   
     5     2    12 1   
     6     2    36 1   
     7     3     6 ar  
     8     3    11 1   
     9     4    14 1   
    10     4    15 1   
    11     4    21 1   
    12     5    17 2   
    13     6     8 ar  
    14     7    17 1   
    15     7    18 1   
    16     8     9 ar  
    17     8    23 1   
    18     9    10 ar  
    19     9    24 1   
    20    10    37 1   
    21    11    12 2   
    22    11    13 1   
    23    12    25 1   
    24    13    14 1   
    25    13    26 1   
    26    13    27 1   
    27    14    28 1   
    28    14    29 1   
    29    15    16 1   
    30    15    19 2   
    31    16    30 1   
    32    16    31 1   
    33    16    32 1   
    34    17    37 1   
    35    18    33 1   
    36    18    34 1   
    37    18    35 1   
    38    22    37 1   
@<TRIPOS>SUBSTRUCTURE
     1 MZC         1 TEMP              0 ****  ****    0 ROOT
