@<TRIPOS>MOLECULE
MZH
   29    30     1     0     0
SMALL
bcc


@<TRIPOS>ATOM
      1 N1           0.0000     0.0000     0.0000 n          1 MZH      -0.176900
      2 C1           1.3390     0.0000     0.0000 c          1 MZH       0.627750
      3 O1           2.0410    -0.0000    -0.9890 o          1 MZH      -0.601000
      4 C2           1.8360     0.0000     1.4290 c3         1 MZH      -0.116150
      5 N2          -2.9820     2.0470    -1.7600 n          1 MZH      -0.176900
      6 C3           0.5390    -0.0010     2.2630 c3         1 MZH      -0.116150
      7 C4          -0.5550     0.0000     1.2180 c          1 MZH       0.627750
      8 O3          -1.7450     0.0010     1.4470 o          1 MZH      -0.601000
      9 C5          -0.7930     0.0060    -1.2330 c3         1 MZH       0.258800
     10 O4          -0.7400     1.3040    -1.8270 os         1 MZH      -0.386600
     11 C6          -3.9610     1.4820    -1.0450 c          1 MZH       0.627750
     12 C7          -5.2200     1.4240    -1.8820 c3         1 MZH      -0.116150
     13 C8          -4.7940     2.0620    -3.2200 c3         1 MZH      -0.116150
     14 C9          -3.3410     2.4180    -2.9960 c          1 MZH       0.627750
     15 C10         -1.6300     2.2520    -1.2340 c3         1 MZH       0.258800
     16 H2           2.4160     0.8930     1.6290 hc         1 MZH       0.051075
     17 H3           0.4810    -0.8940     2.8730 hc         1 MZH       0.051075
     18 H5          -1.8210    -0.2440    -1.0020 h2         1 MZH       0.042700
     19 H5A         -0.3900    -0.7240    -1.9240 h2         1 MZH       0.042700
     20 H7          -6.0100     2.0040    -1.4200 hc         1 MZH       0.051075
     21 H8          -5.3770     2.9530    -3.4180 hc         1 MZH       0.051075
     22 H10         -1.2980     3.2550    -1.4700 h2         1 MZH       0.042700
     23 H10A        -1.6370     2.1170    -0.1590 h2         1 MZH       0.042700
     24 H9           2.4170    -0.8930     1.6290 hc         1 MZH       0.051075
     25 H101         0.4810     0.8920     2.8750 hc         1 MZH       0.051075
     26 H11         -5.5300     0.3970    -2.0320 hc         1 MZH       0.051075
     27 H12         -4.8900     1.3470    -4.0280 hc         1 MZH       0.051075
     28 O5          -2.6150     2.9480    -3.8090 o          1 MZH      -0.601000
     29 O2          -3.8550     1.0780     0.0930 o          1 MZH      -0.601000
@<TRIPOS>BOND
     1     1     2 1   
     2     1     7 1   
     3     1     9 1   
     4     2     3 2   
     5     2     4 1   
     6     4     6 1   
     7     4    16 1   
     8     4    24 1   
     9     5    11 1   
    10     5    14 1   
    11     5    15 1   
    12     6     7 1   
    13     6    17 1   
    14     6    25 1   
    15     7     8 2   
    16     9    10 1   
    17     9    18 1   
    18     9    19 1   
    19    10    15 1   
    20    11    12 1   
    21    11    29 2   
    22    12    13 1   
    23    12    20 1   
    24    12    26 1   
    25    13    14 1   
    26    13    21 1   
    27    13    27 1   
    28    14    28 2   
    29    15    22 1   
    30    15    23 1   
@<TRIPOS>SUBSTRUCTURE
     1 MZH         1 TEMP              0 ****  ****    0 ROOT
