@<TRIPOS>MOLECULE
molecule
   29    30     1     0     0
SMALL
bcc


@<TRIPOS>ATOM
      1 N1           0.0000     0.0000     0.0000 n          1 MZH      -0.521900
      2 C1           1.3390     0.0000     0.0000 c          1 MZH       0.698750
      3 O1           2.0410    -0.0000    -0.9890 o          1 MZH      -0.566250
      4 C2           1.8360     0.0000     1.4290 c3         1 MZH      -0.177150
      5 N2          -2.9820     2.0470    -1.7600 n          1 MZH      -0.521900
      6 C3           0.5390    -0.0010     2.2630 c3         1 MZH      -0.177150
      7 C4          -0.5550     0.0000     1.2180 c          1 MZH       0.698750
      8 O3          -1.7450     0.0010     1.4470 o          1 MZH      -0.566250
      9 C5          -0.7930     0.0060    -1.2330 c3         1 MZH       0.292800
     10 O4          -0.7400     1.3040    -1.8270 os         1 MZH      -0.401600
     11 C6          -3.9610     1.4820    -1.0450 c          1 MZH       0.698750
     12 C7          -5.2200     1.4240    -1.8820 c3         1 MZH      -0.177150
     13 C8          -4.7940     2.0620    -3.2200 c3         1 MZH      -0.177150
     14 C9          -3.3410     2.4180    -2.9960 c          1 MZH       0.698750
     15 C10         -1.6300     2.2520    -1.2340 c3         1 MZH       0.292800
     16 H2           2.4160     0.8930     1.6290 hc         1 MZH       0.086950
     17 H3           0.4810    -0.8940     2.8730 hc         1 MZH       0.086950
     18 H5          -1.8210    -0.2440    -1.0020 h2         1 MZH       0.086200
     19 H5A         -0.3900    -0.7240    -1.9240 h2         1 MZH       0.086200
     20 H7          -6.0100     2.0040    -1.4200 hc         1 MZH       0.086950
     21 H8          -5.3770     2.9530    -3.4180 hc         1 MZH       0.086950
     22 H10         -1.2980     3.2550    -1.4700 h2         1 MZH       0.086200
     23 H10A        -1.6370     2.1170    -0.1590 h2         1 MZH       0.086200
     24 H9           2.4170    -0.8930     1.6290 hc         1 MZH       0.086950
     25 H101         0.4810     0.8920     2.8750 hc         1 MZH       0.086950
     26 H11         -5.5300     0.3970    -2.0320 hc         1 MZH       0.086950
     27 H12         -4.8900     1.3470    -4.0280 hc         1 MZH       0.086950
     28 O5          -2.6150     2.9480    -3.8090 o          1 MZH      -0.566250
     29 O2          -3.8550     1.0780     0.0930 o          1 MZH      -0.566250
@<TRIPOS>BOND
     1     1     7 1
     2     1     2 1
     3     2     3 2
     4     2     4 1
     5    29    11 2
     6     4    16 1
     7     5    15 1
     8     6     4 1
     9     6    17 1
    10     7     6 1
    11     8     7 2
    12     9     1 1
    13     9    18 1
    14     9    19 1
    15    10     9 1
    16    11     5 1
    17    12    11 1
    18    12    13 1
    19    12    20 1
    20    13    14 1
    21    13    21 1
    22    14     5 1
    23    14    28 2
    24    15    10 1
    25    15    22 1
    26    15    23 1
    27     4    24 1
    28     6    25 1
    29    12    26 1
    30    13    27 1
@<TRIPOS>SUBSTRUCTURE
     1 MZH         1 TEMP              0 ****  ****    0 ROOT
