@<TRIPOS>MOLECULE
molecule
   47    50     1     0     0
SMALL
bcc


@<TRIPOS>ATOM
      1 N1           0.0000     0.0000     0.0000 na         1 MZL       0.148300
      2 C2          -0.8240     0.0010    -1.1340 ca         1 MZL       0.012800
      3 C3           1.3590     0.0000     0.0000 cc         1 MZL      -0.054600
      4 N4          -0.4340     0.0050     1.3320 nc         1 MZL      -0.500800
      5 C5          -0.5240    -0.8240    -2.2110 ca         1 MZL      -0.112500
      6 C6          -1.9430     0.8210    -1.1790 ca         1 MZL      -0.112500
      7 C7           1.7730     0.0000     1.2860 cd         1 MZL      -0.331300
      8 C8           2.2460     0.0000    -1.2170 c3         1 MZL      -0.024100
      9 C9           0.6300     0.0030     2.1100 cd         1 MZL       0.397800
     10 C10         -1.3340    -0.8240    -3.3270 ca         1 MZL      -0.133500
     11 C11         -2.7540     0.8220    -2.2950 ca         1 MZL      -0.133500
     12 C12          2.7490    -1.4210    -1.4820 c3         1 MZL      -0.094100
     13 C13          0.6240     0.0070     3.5940 ca         1 MZL      -0.235800
     14 C14         -2.4500     0.0020    -3.3740 ca         1 MZL       0.056600
     15 C15         -0.5810     0.0120     4.2990 ca         1 MZL      -0.069000
     16 C16          1.8220    -0.0000     4.3060 ca         1 MZL       0.435200
     17 N17         -3.2730     0.0030    -4.5070 ns         1 MZL      -0.476100
     18 C18         -0.5330     0.0150     5.6820 ca         1 MZL      -0.258300
     19 N19          1.8180     0.0020     5.6230 nb         1 MZL      -0.692000
     20 C20         -3.4660    -1.1380    -5.2000 c          1 MZL       0.679700
     21 C21          0.6960     0.0130     6.3160 ca         1 MZL       0.420200
     22 C22         -4.2400    -1.1140    -6.4590 ca         1 MZL      -0.278900
     23 O23         -3.0040    -2.1840    -4.7900 o          1 MZL      -0.587100
     24 C24         -4.4470    -2.2910    -7.1890 ca         1 MZL      -0.030000
     25 C25         -4.7810     0.0800    -6.9380 ca         1 MZL       0.444200
     26 C26         -5.1790    -2.2150    -8.3610 ca         1 MZL      -0.263300
     27 N27         -5.4700     0.1000    -8.0600 nb         1 MZL      -0.693000
     28 C28         -5.6760    -0.9910    -8.7710 ca         1 MZL       0.444200
     29 H5           0.3470    -1.4680    -2.1740 ha         1 MZL       0.152500
     30 H6          -2.1800     1.4610    -0.3380 ha         1 MZL       0.152500
     31 H7           2.8020    -0.0010     1.6240 ha         1 MZL       0.158000
     32 H8           3.0920     0.6560    -1.0480 hc         1 MZL       0.060200
     33 H8A          1.6840     0.3500    -2.0750 hc         1 MZL       0.060200
     34 H10         -1.0990    -1.4650    -4.1670 ha         1 MZL       0.151500
     35 H11         -3.6250     1.4640    -2.3310 ha         1 MZL       0.151500
     36 H12          2.1070    -2.1310    -0.9750 hc         1 MZL       0.042367
     37 H12A         2.7320    -1.6170    -2.5480 hc         1 MZL       0.042367
     38 H12B         3.7620    -1.5200    -1.1120 hc         1 MZL       0.042367
     39 H15         -1.5300     0.0140     3.7760 ha         1 MZL       0.155000
     40 H16          2.7640    -0.0090     3.7710 h4         1 MZL       0.027100
     41 HN17        -3.7360     0.8440    -4.7880 hn         1 MZL       0.327500
     42 H18         -1.4480     0.0220     6.2620 ha         1 MZL       0.139000
     43 H21          0.7380     0.0150     7.3990 h4         1 MZL       0.022100
     44 H24         -4.0460    -3.2370    -6.8450 ha         1 MZL       0.166000
     45 H25         -4.6330     0.9980    -6.3820 h4         1 MZL       0.017100
     46 H26         -5.3570    -3.1040    -8.9540 ha         1 MZL       0.147000
     47 H28         -6.2490    -0.9290    -9.6880 h4         1 MZL       0.029100
@<TRIPOS>BOND
     1     1     2 1
     2     1     3 1
     3     1     4 1
     4     2     5 ar
     5     2     6 ar
     6     3     7 2
     7     3     8 1
     8     4     9 2
     9     5    10 ar
    10     6    11 ar
    11     7     9 1
    12     8    12 1
    13     9    13 1
    14    10    14 ar
    15    11    14 ar
    16    13    15 ar
    17    13    16 ar
    18    14    17 1
    19    15    18 ar
    20    16    19 ar
    21    17    20 1
    22    18    21 ar
    23    19    21 ar
    24    20    22 1
    25    20    23 2
    26    22    24 ar
    27    22    25 ar
    28    24    26 ar
    29    25    27 ar
    30    26    28 ar
    31    27    28 ar
    32     5    29 1
    33     6    30 1
    34     7    31 1
    35     8    32 1
    36     8    33 1
    37    10    34 1
    38    11    35 1
    39    12    36 1
    40    12    37 1
    41    12    38 1
    42    15    39 1
    43    16    40 1
    44    17    41 1
    45    18    42 1
    46    21    43 1
    47    24    44 1
    48    25    45 1
    49    26    46 1
    50    28    47 1
@<TRIPOS>SUBSTRUCTURE
     1 MZL         1 TEMP              0 ****  ****    0 ROOT
