@<TRIPOS>MOLECULE
MZM
   23    23     1     0     0
SMALL
bcc


@<TRIPOS>ATOM
      1 N1           0.0000     0.0000     0.0000 nz         1 MZM      -0.126500
      2 S1           1.6560     0.0000     0.0000 sy         1 MZM       0.920000
      3 O1           2.0570     0.0000     1.3630 o          1 MZM      -0.468800
      4 O2           2.0570    -0.9980    -0.9290 o          1 MZM      -0.468800
      5 C1           2.1780     1.5430    -0.6710 cc         1 MZM       0.138600
      6 S2           2.0310     2.0820    -2.3540 ss         1 MZM      -0.094400
      7 C2           2.7620     3.6180    -2.0790 cc         1 MZM       0.520100
      8 N2           3.0680     3.6400    -0.7690 na         1 MZM      -0.018700
      9 C5           3.7140     4.8010    -0.1500 c3         1 MZM       0.200100
     10 N3           2.7400     2.5190    -0.0390 n2         1 MZM      -0.279400
     11 N4           2.9790     4.5810    -2.9780 nf         1 MZM      -0.588100
     12 C3           2.6160     4.4040    -4.2420 c          1 MZM       0.714500
     13 O3           2.0860     3.3630    -4.5820 o          1 MZM      -0.602100
     14 C4           2.8610     5.4910    -5.2550 c3         1 MZM      -0.041100
     15 H1          -0.3340    -0.8400     0.4300 hn         1 MZM       0.317133
     16 H2          -0.3340     0.0480    -0.9420 hn         1 MZM       0.317133
     17 H3           3.8640     4.6100     0.9050 h1         1 MZM       0.045033
     18 H4           3.0830     5.6730    -0.2730 h1         1 MZM       0.045033
     19 H5           4.6710     4.9780    -0.6250 h1         1 MZM       0.045033
     20 H7           3.9280     5.6340    -5.3800 hc         1 MZM       0.036033
     21 H8           2.4120     6.4140    -4.9100 hc         1 MZM       0.036033
     22 H9           2.4210     5.2070    -6.2030 hc         1 MZM       0.036033
     23 H13         -0.3340     0.7970     0.5050 hn         1 MZM       0.317133
@<TRIPOS>BOND
     1     1     2 1   
     2     1    15 1   
     3     1    16 1   
     4     1    23 1   
     5     2     3 2   
     6     2     4 2   
     7     2     5 1   
     8     5     6 1   
     9     5    10 2   
    10     6     7 1   
    11     7     8 1   
    12     7    11 2   
    13     8     9 1   
    14     8    10 1   
    15     9    17 1   
    16     9    18 1   
    17     9    19 1   
    18    11    12 1   
    19    12    13 2   
    20    12    14 1   
    21    14    20 1   
    22    14    21 1   
    23    14    22 1   
@<TRIPOS>SUBSTRUCTURE
     1 MZM         1 TEMP              0 ****  ****    0 ROOT
