@<TRIPOS>MOLECULE
molecule
   23    23     1     0     0
SMALL
bcc


@<TRIPOS>ATOM
      1 N1           0.0000     0.0000     0.0000 nz         1 MZM      -0.811500
      2 S1           1.6560     0.0000     0.0000 sy         1 MZM       1.232000
      3 O1           2.0570     0.0000     1.3630 o          1 MZM      -0.484800
      4 O2           2.0570    -0.9980    -0.9290 o          1 MZM      -0.484800
      5 C1           2.1780     1.5430    -0.6710 cc         1 MZM      -0.014400
      6 S2           2.0310     2.0820    -2.3540 ss         1 MZM       0.031600
      7 C2           2.7620     3.6180    -2.0790 cd         1 MZM       0.661100
      8 N2           3.0680     3.6400    -0.7690 na         1 MZM      -0.376700
      9 C5           3.7140     4.8010    -0.1500 c3         1 MZM       0.226100
     10 N3           2.7400     2.5190    -0.0390 n2         1 MZM      -0.222400
     11 N4           2.9790     4.5810    -2.9780 ne         1 MZM      -0.710100
     12 C3           2.6160     4.4040    -4.2420 c          1 MZM       0.711500
     13 O3           2.0860     3.3630    -4.5820 o          1 MZM      -0.601100
     14 C4           2.8610     5.4910    -5.2550 c3         1 MZM      -0.138100
     15 H1          -0.3340    -0.8430     0.4240 hn         1 MZM       0.498467
     16 H2          -0.3340     0.0540    -0.9420 hn         1 MZM       0.498467
     17 H3           3.0830     5.6730    -0.2730 h1         1 MZM       0.084700
     18 H4           4.6710     4.9780    -0.6250 h1         1 MZM       0.084700
     19 H5           3.8640     4.6100     0.9050 h1         1 MZM       0.084700
     20 H7           2.3390     6.3910    -4.9530 hc         1 MZM       0.077700
     21 H8           3.9240     5.6940    -5.3170 hc         1 MZM       0.077700
     22 H9           2.4980     5.1700    -6.2240 hc         1 MZM       0.077700
     23 H13         -0.3340     0.7940     0.5100 hn         1 MZM       0.498467
@<TRIPOS>BOND
     1     9     8 1
     2     8     7 1
     3     8    10 1
     4    14    12 1
     5    11     7 2
     6    11    12 1
     7     7     6 1
     8    12    13 2
     9    10     5 2
    10     6     5 1
    11     5     2 1
    12     2     4 2
    13     2     1 1
    14     2     3 2
    15     1    15 1
    16     1    16 1
    17     9    17 1
    18     9    18 1
    19     9    19 1
    20    14    20 1
    21    14    21 1
    22    14    22 1
    23    23     1 1
@<TRIPOS>SUBSTRUCTURE
     1 MZM         1 TEMP              0 ****  ****    0 ROOT
