@<TRIPOS>MOLECULE
molecule
   29    31     1     0     0
SMALL
bcc


@<TRIPOS>ATOM
      1 CAA          0.0000     0.0000     0.0000 c3         1 MZO       0.129700
      2 OAM          1.4290     0.0000     0.0000 os         1 MZO      -0.326900
      3 CAP          2.0460     0.0000     1.2110 ca         1 MZO       0.155100
      4 CAG          3.4300    -0.0000     1.2830 ca         1 MZO      -0.158000
      5 CAF          1.2910     0.0050     2.3750 ca         1 MZO      -0.240000
      6 CAC          1.9160     0.0050     3.6080 ca         1 MZO      -0.073000
      7 CAE          3.2960     0.0000     3.6850 ca         1 MZO      -0.200000
      8 CAO          4.0570     0.0000     2.5230 ca         1 MZO       0.183600
      9 N6           5.4530     0.0000     2.6000 nu         1 MZO      -0.747300
     10 C6           6.2000     0.6520     1.6340 ca         1 MZO       0.780200
     11 C5           7.6030     0.5660     1.6300 ca         1 MZO      -0.208200
     12 N7           8.5210    -0.0550     2.4100 nc         1 MZO      -0.585100
     13 C8           9.7150     0.1970     1.9570 cd         1 MZO       0.416700
     14 N9           9.6360     0.9970     0.8560 na         1 MZO      -0.359000
     15 C4           8.3070     1.2480     0.6240 ca         1 MZO       0.471800
     16 N3           7.6270     1.9430    -0.2810 nb         1 MZO      -0.791000
     17 C2           6.3130     1.9960    -0.2400 ca         1 MZO       0.740900
     18 N1           5.6070     1.3680     0.6840 nb         1 MZO      -0.815000
     19 HAA         -0.3610    -0.8830     0.5130 h1         1 MZO       0.040700
     20 HAAA        -0.3610     0.8860     0.5080 h1         1 MZO       0.040700
     21 HAAB        -0.3610    -0.0030    -1.0210 h1         1 MZO       0.040700
     22 HAG          4.0210    -0.0000     0.3760 ha         1 MZO       0.171000
     23 HAF          0.2090     0.0090     2.3170 ha         1 MZO       0.133000
     24 HAC          1.3230     0.0070     4.5140 ha         1 MZO       0.131000
     25 HAE          3.7840     0.0000     4.6520 ha         1 MZO       0.131000
     26 HN6          5.9120    -0.4880     3.3430 hn         1 MZO       0.474800
     27 H8          10.6360    -0.1730     2.3910 h5         1 MZO       0.080800
     28 HN9         10.4060     1.3390     0.3160 hn         1 MZO       0.315700
     29 H2           5.7890     2.5690    -0.9960 h5         1 MZO       0.066100
@<TRIPOS>BOND
     1     1     2 1
     2     2     3 1
     3     3     4 ar
     4     3     5 ar
     5     4     8 ar
     6     5     6 ar
     7     6     7 ar
     8     7     8 ar
     9     8     9 1
    10     9    10 1
    11    10    11 ar
    12    10    18 ar
    13    11    12 1
    14    11    15 ar
    15    12    13 2
    16    13    14 1
    17    14    15 1
    18    15    16 ar
    19    16    17 ar
    20    17    18 ar
    21     1    19 1
    22     1    20 1
    23     1    21 1
    24     4    22 1
    25     5    23 1
    26     6    24 1
    27     7    25 1
    28     9    26 1
    29    13    27 1
    30    14    28 1
    31    17    29 1
@<TRIPOS>SUBSTRUCTURE
     1 MZO         1 TEMP              0 ****  ****    0 ROOT
