@<TRIPOS>MOLECULE
MZO
   29    31     1     0     0
SMALL
bcc


@<TRIPOS>ATOM
      1 CAA          0.0000     0.0000     0.0000 c3         1 MZO       0.243700
      2 OAM          1.4290     0.0000     0.0000 os         1 MZO      -0.305900
      3 CAP          2.0460     0.0000     1.2110 ca         1 MZO       0.169100
      4 CAG          3.4300    -0.0000     1.2830 ca         1 MZO      -0.147000
      5 CAF          1.2910     0.0050     2.3750 ca         1 MZO      -0.228000
      6 CAC          1.9160     0.0050     3.6080 ca         1 MZO      -0.038000
      7 CAE          3.2960     0.0000     3.6850 ca         1 MZO      -0.177000
      8 CAO          4.0570     0.0000     2.5230 ca         1 MZO       0.026600
      9 N6           5.4530     0.0000     2.6000 nu         1 MZO      -0.269300
     10 C6           6.2000     0.6520     1.6340 ca         1 MZO       0.584200
     11 C5           7.6030     0.5660     1.6300 ca         1 MZO      -0.239200
     12 N7           8.5210    -0.0550     2.4100 nc         1 MZO      -0.492100
     13 C8           9.7150     0.1970     1.9570 cd         1 MZO       0.223700
     14 N9           9.6360     0.9970     0.8560 na         1 MZO       0.177000
     15 C4           8.3070     1.2480     0.6240 ca         1 MZO       0.249800
     16 N3           7.6270     1.9430    -0.2810 nb         1 MZO      -0.674000
     17 C2           6.3130     1.9960    -0.2400 ca         1 MZO       0.687900
     18 N1           5.6070     1.3680     0.6840 nb         1 MZO      -0.723000
     19 HAA         -0.3610    -0.8830     0.5130 h1         1 MZO      -0.003300
     20 HAAA        -0.3610     0.8860     0.5080 h1         1 MZO      -0.003300
     21 HAAB        -0.3610    -0.0030    -1.0210 h1         1 MZO      -0.003300
     22 HAG          4.0210    -0.0000     0.3760 ha         1 MZO       0.150000
     23 HAF          0.2090     0.0090     2.3170 ha         1 MZO       0.120000
     24 HAC          1.3230     0.0070     4.5140 ha         1 MZO       0.099000
     25 HAE          3.7840     0.0000     4.6520 ha         1 MZO       0.109000
     26 HN6          5.9120    -0.4880     3.3430 hn         1 MZO       0.301800
     27 H8          10.6360    -0.1730     2.3910 h5         1 MZO       0.031800
     28 HN9         10.4060     1.3390     0.3160 hn         1 MZO       0.133700
     29 H2           5.7890     2.5690    -0.9960 h5         1 MZO      -0.001900
@<TRIPOS>BOND
     1     1     2 1   
     2     1    19 1   
     3     1    20 1   
     4     1    21 1   
     5     2     3 1   
     6     3     4 ar  
     7     3     5 ar  
     8     4     8 ar  
     9     4    22 1   
    10     5     6 ar  
    11     5    23 1   
    12     6     7 ar  
    13     6    24 1   
    14     7     8 ar  
    15     7    25 1   
    16     8     9 1   
    17     9    10 1   
    18     9    26 1   
    19    10    11 ar  
    20    10    18 ar  
    21    11    12 1   
    22    11    15 ar  
    23    12    13 2   
    24    13    14 1   
    25    13    27 1   
    26    14    15 1   
    27    14    28 1   
    28    15    16 ar  
    29    16    17 ar  
    30    17    18 ar  
    31    17    29 1   
@<TRIPOS>SUBSTRUCTURE
     1 MZO         1 TEMP              0 ****  ****    0 ROOT
