@<TRIPOS>MOLECULE
molecule
   35    36     1     0     0
SMALL
bcc


@<TRIPOS>ATOM
      1 P            0.0000     0.0000     0.0000 p5         1 MZP       1.141900
      2 O1P          1.5660     0.0000     0.0000 o          1 MZP      -0.796167
      3 O2P         -0.5220     0.0000     1.4770 o          1 MZP      -0.796167
      4 O3P         -0.5210    -1.2810    -0.7380 o          1 MZP      -0.796167
      5 O5'         -0.5380     1.3130    -0.7590 os         1 MZP      -0.523200
      6 C5'          0.0640     2.4380    -0.1150 c3         1 MZP       0.161400
      7 C4'         -0.4080     3.7260    -0.7920 c3         1 MZP       0.128100
      8 O4'         -1.8220     3.9210    -0.5720 os         1 MZP      -0.393600
      9 C3'          0.2660     4.9560    -0.1430 c3         1 MZP       0.093100
     10 O3'          1.3860     5.3820    -0.9210 oh         1 MZP      -0.571800
     11 C2'         -0.8410     6.0370    -0.1470 c3         1 MZP       0.081100
     12 O2'         -0.4350     7.1650    -0.9260 oh         1 MZP      -0.560800
     13 C1'         -2.0520     5.3290    -0.7960 c3         1 MZP       0.296500
     14 N1          -3.2960     5.7530    -0.1480 n          1 MZP      -0.203400
     15 C2          -3.9180     5.1220     0.8870 cc         1 MZP       0.166200
     16 N3          -4.9960     5.7740     1.2060 na         1 MZP      -0.197700
     17 C4          -5.1200     6.8580     0.3920 cc         1 MZP      -0.294700
     18 C6          -6.1990     7.8500     0.4230 c          1 MZP       0.337800
     19 O6          -6.1940     8.7790    -0.3640 o          1 MZP      -0.500100
     20 C5          -4.0410     6.8440    -0.4760 c          1 MZP       0.581500
     21 N6          -7.1950     7.7360     1.3230 nz         1 MZP      -0.648400
     22 O5          -3.7760     7.7440    -1.4520 o          1 MZP      -0.651500
     23 H5'1         1.1420     2.3640    -0.1910 h1         1 MZP       0.058700
     24 H5'2        -0.2250     2.4520     0.9300 h1         1 MZP       0.058700
     25 H4'C        -0.1950     3.7000    -1.8540 h1         1 MZP       0.087700
     26 H3'C         0.5670     4.7280     0.8720 h1         1 MZP       0.057700
     27 H3'O         2.1420     5.4660    -0.3640 ho         1 MZP       0.401000
     28 H2'C        -1.0780     6.3350     0.8660 h1         1 MZP       0.032700
     29 H2'O        -0.2470     7.8900    -0.3540 ho         1 MZP       0.398000
     30 H1'C        -2.0830     5.5390    -1.8580 h2         1 MZP       0.123700
     31 HC2         -3.5690     4.2170     1.3700 h5         1 MZP       0.122800
     32 HN3         -5.6330     5.5210     1.9350 hn         1 MZP       0.293700
     33 HN61        -6.8130     7.7650     2.2480 hn         1 MZP       0.436800
     34 HN62        -7.6710     6.8660     1.1860 hn         1 MZP       0.436800
     35 H63         -7.8400     8.4920     1.2050 hn         1 MZP       0.436800
@<TRIPOS>BOND
     1     1     2 1
     2     1     3 1
     3     1     4 1
     4     1     5 1
     5     5     6 1
     6     6     7 1
     7     6    23 1
     8     6    24 1
     9     7     8 1
    10     7     9 1
    11     7    25 1
    12     8    13 1
    13     9    10 1
    14     9    11 1
    15     9    26 1
    16    10    27 1
    17    11    12 1
    18    11    13 1
    19    11    28 1
    20    12    29 1
    21    13    14 1
    22    13    30 1
    23    14    15 2
    24    14    20 1
    25    15    16 1
    26    15    31 1
    27    16    17 2
    28    16    32 1
    29    17    18 1
    30    17    20 1
    31    18    19 2
    32    18    21 1
    33    20    22 2
    34    21    33 1
    35    21    34 1
    36    35    21 1
@<TRIPOS>SUBSTRUCTURE
     1 MZP         1 TEMP              0 ****  ****    0 ROOT
