@<TRIPOS>MOLECULE
MZP
   34    35     1     0     0
SMALL
bcc


@<TRIPOS>ATOM
      1 P          -1.1100    0.7030    0.5000 p5        1 MZP      1.308900
      2 O1P         0.0340    0.8980   -0.4580 o         1 MZP     -0.917500
      3 O2P        -0.7260    0.5850    1.9450 o         1 MZP     -0.917500
      4 O3P        -2.3230   -0.0370    0.0300 o         1 MZP     -0.917500
      5 O5'        -1.7120    2.3770    0.4700 os        1 MZP     -0.558200
      6 C5'        -0.7340    3.2840    0.7560 c3        1 MZP      0.221400
      7 C4'        -0.1480    3.9510   -0.5090 c3        1 MZP      0.038100
      8 O4'        -1.1440    4.4390   -1.4370 os        1 MZP     -0.405600
      9 C3'         0.6580    5.2020   -0.1230 c3        1 MZP      0.078100
     10 O3'         1.7330    5.4760   -1.0090 oh        1 MZP     -0.624800
     11 C2'        -0.3820    6.3520   -0.2010 c3        1 MZP      0.090100
     12 O2'         0.1280    7.5310   -0.7750 oh        1 MZP     -0.587800
     13 C1'        -1.5400    5.7630   -1.0830 c3        1 MZP      0.274500
     14 N1         -2.8520    5.7470   -0.4630 n         1 MZP     -0.389400
     15 C2         -3.4900    4.5970   -0.0520 cc        1 MZP      0.267000
     16 N3         -4.7250    4.9050    0.4060 na        1 MZP     -0.287200
     17 C4         -4.9630    6.3020    0.2600 cc        1 MZP     -0.238700
     18 C6         -6.1680    6.9820    0.6340 c         1 MZP      0.619800
     19 O6         -6.4660    8.1500    0.2890 o         1 MZP     -0.656100
     20 C5         -3.7690    6.8800   -0.3300 c         1 MZP      0.637200
     21 N6         -7.1140    6.2810    1.4190 n         1 MZP     -0.662000
     22 O5         -3.4610    8.0300   -0.6720 o         1 MZP     -0.647500
     23 H5'1        0.1230    2.7900    1.2990 h1        1 MZP     -0.000800
     24 H5'2       -1.1600    4.1130    1.4020 h1        1 MZP     -0.000800
     25 H4'C        0.4150    3.1690   -1.0970 h1        1 MZP      0.158700
     26 H3'C        1.1120    5.1250    0.8970 h1        1 MZP      0.087700
     27 H3'O        1.5910    4.9460   -1.8030 ho        1 MZP      0.411000
     28 H2'C       -0.7370    6.6500    0.8200 h1        1 MZP      0.093700
     29 H2'O        0.7060    7.2730   -1.5060 ho        1 MZP      0.403000
     30 H1'C       -1.6330    6.3490   -2.0440 h2        1 MZP      0.079700
     31 HC2        -3.0330    3.5550   -0.0870 h5        1 MZP      0.204800
     32 HN3        -5.3960    4.2450    0.7060 hn        1 MZP      0.313700
     33 HN61       -6.7460    5.6440    2.0850 hn        1 MZP      0.262500
     34 HN62       -7.8440    6.8530    1.7780 hn        1 MZP      0.262500
@<TRIPOS>BOND
     1    1    2 1   
     2    1    3 1   
     3    1    4 1   
     4    1    5 1   
     5    5    6 1   
     6    6    7 1   
     7    6   23 1   
     8    6   24 1   
     9    7    8 1   
    10    7    9 1   
    11    7   25 1   
    12    8   13 1   
    13    9   10 1   
    14    9   11 1   
    15    9   26 1   
    16   10   27 1   
    17   11   12 1   
    18   11   13 1   
    19   11   28 1   
    20   12   29 1   
    21   13   14 1   
    22   13   30 1   
    23   14   15 2   
    24   14   20 1   
    25   15   16 1   
    26   15   31 1   
    27   16   17 2   
    28   16   32 1   
    29   17   18 1   
    30   17   20 1   
    31   18   19 2   
    32   18   21 1   
    33   20   22 2   
    34   21   33 1   
    35   21   34 1   
@<TRIPOS>SUBSTRUCTURE
     1 MZP         1 TEMP              0 ****  ****    0 ROOT
