@<TRIPOS>MOLECULE
molecule
   32    33     1     0     0
SMALL
bcc


@<TRIPOS>ATOM
      1 N1           0.0000     0.0000     0.0000 nz         1 MZR      -0.668400
      2 C4           3.4570    -0.0000    -1.4240 cc         1 MZR       0.123500
      3 C5           2.0810    -0.0010    -1.2700 cd         1 MZR       0.144800
      4 C6           1.3480     0.0000     0.0000 c          1 MZR       0.450600
      5 O6           1.9570     0.0000     1.0550 o          1 MZR      -0.430100
      6 N7           1.5360    -0.0010    -2.5160 nd         1 MZR      -0.709000
      7 C8           2.4890    -0.0010    -3.3990 cc         1 MZR       0.486400
      8 N9           3.6950     0.0040    -2.7640 na         1 MZR      -0.195900
      9 C1'          5.0110     0.0110    -3.4080 c3         1 MZR       0.198800
     10 C2'          5.5620    -1.4320    -3.5390 c3         1 MZR       0.051100
     11 O2'          6.2550    -1.8240    -2.3520 oh         1 MZR      -0.503800
     12 C3'          6.5410    -1.2990    -4.7310 c3         1 MZR       0.066100
     13 O3'          7.8810    -1.1330    -4.2620 oh         1 MZR      -0.525800
     14 C4'          6.0670    -0.0310    -5.4690 c3         1 MZR       0.191100
     15 O4'          4.9050     0.4560    -4.7780 os         1 MZR      -0.400600
     16 C5'          5.7050    -0.3760    -6.9150 c3         1 MZR      -0.055600
     17 O5'          5.3790     0.8210    -7.6230 oh         1 MZR      -0.570800
     18 HN1         -0.3340    -0.8180    -0.4700 hn         1 MZR       0.480133
     19 HN1A        -0.3340     0.8160    -0.4730 hn         1 MZR       0.480133
     20 HO3          4.6240     0.8880    -0.2320 ho         1 MZR       0.457000
     21 H8           2.3470    -0.0000    -4.4730 h5         1 MZR       0.113100
     22 H1'          5.7080     0.6340    -2.8600 h2         1 MZR       0.109700
     23 H2'          4.6210    -1.9030    -3.7970 h1         1 MZR       0.071700
     24 HO2'         5.5660    -2.4390    -2.5390 ho         1 MZR       0.412000
     25 H3'          6.4640    -2.1630    -5.3800 h1         1 MZR       0.068700
     26 HO3'         7.8360    -1.8890    -4.8240 ho         1 MZR       0.417000
     27 H4'          6.8480     0.7190    -5.4470 h1         1 MZR       0.084700
     28 H5'          6.5740     0.2310    -6.6870 h1         1 MZR       0.105200
     29 H5'A         6.1420    -1.2210    -7.4330 h1         1 MZR       0.105200
     30 HO5'         4.9820     0.6000    -8.4490 ho         1 MZR       0.408000
     31 H13         -0.3340     0.0050     0.9440 hn         1 MZR       0.480133
     32 O3           4.3820    -0.0000    -0.4360 oh         1 MZR      -0.447100
@<TRIPOS>BOND
     1     1     4 1
     2    32     2 1
     3     2     3 2
     4     2     8 1
     5     3     4 1
     6     3     6 1
     7     4     5 2
     8     6     7 2
     9     7     8 1
    10     8     9 1
    11     9    10 1
    12     9    15 1
    13    10    11 1
    14    10    12 1
    15    12    13 1
    16    12    14 1
    17    14    15 1
    18    14    16 1
    19    16    17 1
    20     1    18 1
    21     1    19 1
    22    32    20 1
    23     7    21 1
    24     9    22 1
    25    10    23 1
    26    11    24 1
    27    12    25 1
    28    13    26 1
    29    14    27 1
    30    16    28 1
    31    16    29 1
    32    17    30 1
    33    31     1 1
@<TRIPOS>SUBSTRUCTURE
     1 MZR         1 TEMP              0 ****  ****    0 ROOT
