@<TRIPOS>MOLECULE
MZR
   32    33     1     0     0
SMALL
bcc


@<TRIPOS>ATOM
      1 N1           0.0000     0.0000     0.0000 nz         1 MZR       0.216600
      2 C4           3.4570    -0.0000    -1.4240 cc         1 MZR      -0.016500
      3 C5           2.0810    -0.0010    -1.2700 cd         1 MZR       0.080800
      4 C6           1.3480     0.0000     0.0000 c          1 MZR       0.297600
      5 O6           1.9570     0.0000     1.0550 o          1 MZR      -0.451100
      6 N7           1.5360    -0.0010    -2.5160 nd         1 MZR      -0.620000
      7 C8           2.4890    -0.0010    -3.3990 cc         1 MZR       0.318400
      8 N9           3.6950     0.0040    -2.7640 na         1 MZR       0.271100
      9 C1'          5.0110     0.0110    -3.4080 c3         1 MZR       0.091800
     10 C2'          5.5620    -1.4320    -3.5390 c3         1 MZR       0.100100
     11 O2'          6.2550    -1.8240    -2.3520 oh         1 MZR      -0.507800
     12 C3'          6.5410    -1.2990    -4.7310 c3         1 MZR       0.111100
     13 O3'          7.8810    -1.1330    -4.2620 oh         1 MZR      -0.533800
     14 C4'          6.0670    -0.0310    -5.4690 c3         1 MZR       0.249100
     15 O4'          4.9050     0.4560    -4.7780 os         1 MZR      -0.390600
     16 C5'          5.7050    -0.3760    -6.9150 c3         1 MZR      -0.014600
     17 O5'          5.3790     0.8210    -7.6230 oh         1 MZR      -0.546800
     18 HN1         -0.3340    -0.8180    -0.4700 hn         1 MZR       0.245133
     19 HN1A        -0.3340     0.8160    -0.4730 hn         1 MZR       0.245133
     20 HO3          4.6240     0.8880    -0.2320 ho         1 MZR       0.431000
     21 H8           2.3470    -0.0000    -4.4730 h5         1 MZR       0.061100
     22 H1'          5.7080     0.6340    -2.8600 h2         1 MZR       0.072700
     23 H2'          4.6210    -1.9030    -3.7970 h1         1 MZR       0.031700
     24 HO2'         5.5660    -2.4390    -2.5390 ho         1 MZR       0.407000
     25 H3'          6.4640    -2.1630    -5.3800 h1         1 MZR       0.030700
     26 HO3'         7.8360    -1.8890    -4.8240 ho         1 MZR       0.416000
     27 H4'          6.8480     0.7190    -5.4470 h1         1 MZR       0.048700
     28 H5'          6.5740     0.2310    -6.6870 h1         1 MZR       0.068200
     29 H5'A         6.1420    -1.2210    -7.4330 h1         1 MZR       0.068200
     30 HO5'         4.9820     0.6000    -8.4490 ho         1 MZR       0.399000
     31 H13         -0.3340     0.0050     0.9440 hn         1 MZR       0.245133
     32 O3           4.3820    -0.0000    -0.4360 oh         1 MZR      -0.425100
@<TRIPOS>BOND
     1     1     4 1   
     2     1    18 1   
     3     1    19 1   
     4     1    31 1   
     5     2     3 2   
     6     2     8 1   
     7     2    32 1   
     8     3     4 1   
     9     3     6 1   
    10     4     5 2   
    11     6     7 2   
    12     7     8 1   
    13     7    21 1   
    14     8     9 1   
    15     9    10 1   
    16     9    15 1   
    17     9    22 1   
    18    10    11 1   
    19    10    12 1   
    20    10    23 1   
    21    11    24 1   
    22    12    13 1   
    23    12    14 1   
    24    12    25 1   
    25    13    26 1   
    26    14    15 1   
    27    14    16 1   
    28    14    27 1   
    29    16    17 1   
    30    16    28 1   
    31    16    29 1   
    32    17    30 1   
    33    20    32 1   
@<TRIPOS>SUBSTRUCTURE
     1 MZR         1 TEMP              0 ****  ****    0 ROOT
