@<TRIPOS>MOLECULE
molecule
   26    27     1     0     0
SMALL
bcc


@<TRIPOS>ATOM
      1 F            0.0000     0.0000     0.0000 f          1 MZS      -0.176900
      2 C2           1.3510     0.0000     0.0000 ca         1 MZS       0.096900
      3 C1           2.0440     0.0000     1.1980 ca         1 MZS      -0.193500
      4 C3           2.0430    -0.0060    -1.1990 ca         1 MZS      -0.193500
      5 C4           3.4250    -0.0060    -1.1980 ca         1 MZS      -0.078500
      6 C5           4.1160    -0.0000    -0.0020 ca         1 MZS      -0.096300
      7 C            3.4250     0.0000     1.1970 ca         1 MZS      -0.078500
      8 C6           5.6230    -0.0010    -0.0020 c3         1 MZS       0.116600
      9 N            6.1120     1.3800    -0.0080 na         1 MZS       0.125400
     10 N1           6.3590     2.0800     1.0400 nc         1 MZS      -0.541800
     11 C9           6.7860     3.2820     0.7020 cd         1 MZS       0.271800
     12 C10          7.1700     4.3650     1.6290 c          1 MZS       0.819100
     13 O1           7.5500     5.4330     1.1920 o          1 MZS      -0.857800
     14 O            7.0990     4.1690     2.9600 o          1 MZS      -0.857800
     15 C8           6.8100     3.3430    -0.7060 cd         1 MZS      -0.266300
     16 C7           6.3790     2.1130    -1.1320 cc         1 MZS      -0.197900
     17 C11          6.2310     1.6690    -2.5260 c          1 MZS       0.925200
     18 O2           5.7910     0.4240    -2.7940 o          1 MZS      -0.863800
     19 O3           6.5050     2.4260    -3.4370 o          1 MZS      -0.863800
     20 H1           1.5040     0.0010     2.1370 ha         1 MZS       0.121500
     21 H3           1.5020    -0.0110    -2.1370 ha         1 MZS       0.121500
     22 H            3.9680     0.0030     2.1340 ha         1 MZS       0.180500
     23 H4           3.9660    -0.0090    -2.1370 ha         1 MZS       0.180500
     24 H61C         5.9840    -0.5160    -0.8840 h1         1 MZS       0.073700
     25 H62C         5.9840    -0.5080     0.8850 h1         1 MZS       0.073700
     26 H8           7.1090     4.1820    -1.3220 ha         1 MZS       0.160000
@<TRIPOS>BOND
     1     1     2 1
     2     2     3 ar
     3     2     4 ar
     4     3     7 ar
     5     4     5 ar
     6     5     6 ar
     7     6     7 ar
     8     6     8 1
     9     8     9 1
    10     9    10 1
    11     9    16 1
    12    10    11 2
    13    11    12 1
    14    11    15 1
    15    12    13 1
    16    12    14 1
    17    15    16 2
    18    16    17 1
    19    17    18 1
    20    17    19 1
    21     3    20 1
    22     4    21 1
    23     7    22 1
    24     5    23 1
    25     8    24 1
    26     8    25 1
    27    15    26 1
@<TRIPOS>SUBSTRUCTURE
     1 MZS         1 TEMP              0 ****  ****    0 ROOT
