@<TRIPOS>MOLECULE
MZS
   26    27     1     0     0
SMALL
bcc


@<TRIPOS>ATOM
      1 F          -0.1310   -0.1360   -0.0220 f         1 MZS     -0.178900
      2 C2          1.2280   -0.0580   -0.0020 ca        1 MZS      0.084900
      3 C1          1.9100   -0.1010    1.2250 ca        1 MZS     -0.186500
      4 C3          1.9400    0.0670   -1.2080 ca        1 MZS     -0.186500
      5 C4          3.3300    0.1300   -1.1800 ca        1 MZS     -0.088500
      6 C5          4.0170    0.0610    0.0400 ca        1 MZS     -0.084300
      7 C           3.3020   -0.0350    1.2350 ca        1 MZS     -0.088500
      8 C6          5.5240    0.0630    0.0340 c3        1 MZS      0.100600
      9 N           6.1330    1.3680    0.0020 na        1 MZS      0.057400
     10 N1          6.2510    2.1460    1.1060 nc        1 MZS     -0.563800
     11 C9          6.7870    3.3240    0.7050 cd        1 MZS      0.295800
     12 C10         7.1370    4.4740    1.6280 c         1 MZS      0.836100
     13 O1          6.3420    5.4550    1.6940 o         1 MZS     -0.847300
     14 O           8.2190    4.4130    2.2800 o         1 MZS     -0.847300
     15 C8          6.9930    3.3020   -0.7350 cd        1 MZS     -0.282300
     16 C7          6.5540    2.0430   -1.1680 cc        1 MZS     -0.145900
     17 C11         6.5450    1.4880   -2.5660 c         1 MZS      0.935200
     18 O2          5.9390    0.3950   -2.8110 o         1 MZS     -0.853300
     19 O3          7.1430    2.1360   -3.4690 o         1 MZS     -0.853300
     20 H1          1.3430   -0.1730    2.1630 ha        1 MZS      0.124000
     21 H3          1.3960    0.1220   -2.1600 ha        1 MZS      0.124000
     22 H           3.8420   -0.0380    2.1940 ha        1 MZS      0.176500
     23 H4          3.9240    0.2470   -2.1130 ha        1 MZS      0.176500
     24 H61C        5.8810   -0.4840    0.9550 h1        1 MZS      0.071200
     25 H62C        5.8760   -0.4890   -0.8910 h1        1 MZS      0.071200
     26 H8          7.4100    4.0930   -1.3430 ha        1 MZS      0.154000
@<TRIPOS>BOND
     1    1    2 1   
     2    2    3 ar  
     3    2    4 ar  
     4    3    7 ar  
     5    3   20 1   
     6    4    5 ar  
     7    4   21 1   
     8    5    6 ar  
     9    5   23 1   
    10    6    7 ar  
    11    6    8 1   
    12    7   22 1   
    13    8    9 1   
    14    8   24 1   
    15    8   25 1   
    16    9   10 1   
    17    9   16 1   
    18   10   11 2   
    19   11   12 1   
    20   11   15 1   
    21   12   13 1   
    22   12   14 1   
    23   15   16 2   
    24   15   26 1   
    25   16   17 1   
    26   17   18 1   
    27   17   19 1   
@<TRIPOS>SUBSTRUCTURE
     1 MZS         1 TEMP              0 ****  ****    0 ROOT
