@<TRIPOS>MOLECULE
MZT
   28    27     1     0     0
SMALL
bcc


@<TRIPOS>ATOM
      1 N1           0.0000     0.0000     0.0000 n4         1 MZT       0.057200
      2 C8          -0.4890     1.2190     0.6570 c3         1 MZT       0.006100
      3 O4           5.3280     0.1690     3.1080 o          1 MZT      -0.874800
      4 C5           4.0110     0.0690     2.8620 c          1 MZT       0.975600
      5 O7           3.2350    -0.0790     3.7760 o          1 MZT      -0.874800
      6 C6           3.5030     0.1420     1.4440 c3         1 MZT      -0.134400
      7 C2           1.4690     0.0000     0.0000 c3         1 MZT      -0.051500
      8 C9          -0.4900    -1.1790     0.7270 c3         1 MZT       0.006100
      9 C10         -0.4890    -0.0400    -1.3850 c3         1 MZT       0.006100
     10 C3           1.9790     0.0000     1.4430 c3         1 MZT      -0.035400
     11 C21          1.9800    -1.2500    -0.7200 c3         1 MZT      -0.020100
     12 H81C        -0.3950     1.1140     1.7310 hx         1 MZT       0.070922
     13 H82C        -1.5300     1.3750     0.4000 hx         1 MZT       0.070922
     14 H83C         0.0960     2.0680     0.3250 hx         1 MZT       0.070922
     15 H2           1.8300     0.8840    -0.5110 hx         1 MZT       0.079700
     16 H91C        -0.2780    -1.0660     1.7830 hx         1 MZT       0.070922
     17 H92C        -1.5590    -1.2750     0.5810 hx         1 MZT       0.070922
     18 H93C         0.0060    -2.0660     0.3520 hx         1 MZT       0.070922
     19 H101        -0.5490    -1.0690    -1.7170 hx         1 MZT       0.070922
     20 H102        -1.4720     0.4130    -1.4340 hx         1 MZT       0.070922
     21 H103         0.1930     0.5070    -2.0240 hx         1 MZT       0.070922
     22 H61C         3.7770     1.0950     1.0100 hc         1 MZT       0.017200
     23 H62C         3.9410    -0.6600     0.8620 hc         1 MZT       0.017200
     24 H31C         1.7020    -0.9300     1.9240 hc         1 MZT       0.042700
     25 H32C         1.5390     0.8300     1.9820 hc         1 MZT       0.042700
     26 H211         2.0170    -2.0780    -0.0240 hc         1 MZT       0.034367
     27 H212         2.9720    -1.0610    -1.1110 hc         1 MZT       0.034367
     28 H213         1.3110    -1.4950    -1.5370 hc         1 MZT       0.034367
@<TRIPOS>BOND
     1     1     2 1   
     2     1     7 1   
     3     1     8 1   
     4     1     9 1   
     5     2    12 1   
     6     2    13 1   
     7     2    14 1   
     8     3     4 1   
     9     4     5 1   
    10     4     6 1   
    11     6    10 1   
    12     6    22 1   
    13     6    23 1   
    14     7    10 1   
    15     7    11 1   
    16     7    15 1   
    17     8    16 1   
    18     8    17 1   
    19     8    18 1   
    20     9    19 1   
    21     9    20 1   
    22     9    21 1   
    23    10    24 1   
    24    10    25 1   
    25    11    26 1   
    26    11    27 1   
    27    11    28 1   
@<TRIPOS>SUBSTRUCTURE
     1 MZT         1 TEMP              0 ****  ****    0 ROOT
