@<TRIPOS>MOLECULE
MZX
   29    30     1     0     0
SMALL
bcc


@<TRIPOS>ATOM
      1 C1           0.0000     0.0000     0.0000 ca         1 MZX       0.172100
      2 C2           1.4040     0.0000     0.0000 ca         1 MZX      -0.123800
      3 C3           2.1050     0.0000     1.2200 ca         1 MZX      -0.059400
      4 C4           1.3940     0.0000     2.4200 ca         1 MZX       0.063100
      5 C5           0.0110    -0.0000     2.4030 ca         1 MZX      -0.121000
      6 C6          -0.6820     0.0000     1.2010 ca         1 MZX      -0.212000
      7 C7           2.1600    -0.0000    -1.2520 cc         1 MZX       0.021600
      8 C8           3.5160    -0.0000    -1.1910 cd         1 MZX      -0.235200
      9 C9           4.1710    -0.0010     0.0580 c          1 MZX       0.593700
     10 N10          3.4850     0.0000     1.2140 ns         1 MZX       0.054900
     11 O11         -0.6840     0.0060    -1.1740 os         1 MZX      -0.300900
     12 O12          2.0600    -0.0010     3.6060 os         1 MZX      -0.315900
     13 C13          1.2680    -0.0010     4.7950 c3         1 MZX       0.251700
     14 C14         -2.1110     0.0060    -1.0930 c3         1 MZX       0.237700
     15 C15          1.4480     0.0000    -2.5800 c3         1 MZX       0.046100
     16 O17          5.3900    -0.0010     0.0890 o          1 MZX      -0.695500
     17 H5          -0.5360    -0.0000     3.3370 ha         1 MZX       0.119000
     18 H6          -1.7660    -0.0000     1.2050 ha         1 MZX       0.124000
     19 H8           4.0970    -0.0010    -2.1050 ha         1 MZX       0.139000
     20 HN10         3.9820    -0.0010     2.0820 hn         1 MZX       0.186500
     21 H13          0.6430    -0.8850     4.8130 h1         1 MZX      -0.001300
     22 H13A         1.9190    -0.0010     5.6620 h1         1 MZX      -0.001300
     23 H13B         0.6430     0.8840     4.8130 h1         1 MZX      -0.001300
     24 H14         -2.4430    -0.8800    -0.5660 h1         1 MZX       0.000033
     25 H14A        -2.5290     0.0090    -2.0930 h1         1 MZX       0.000033
     26 H14B        -2.4430     0.8890    -0.5610 h1         1 MZX       0.000033
     27 H15          2.1780    -0.0020    -3.3810 hc         1 MZX       0.020367
     28 H15A         0.8260    -0.8830    -2.6560 hc         1 MZX       0.020367
     29 H15B         0.8290     0.8860    -2.6580 hc         1 MZX       0.020367
@<TRIPOS>BOND
     1     1     2 ar  
     2     1     6 ar  
     3     1    11 1   
     4     2     3 ar  
     5     2     7 1   
     6     3     4 ar  
     7     3    10 1   
     8     4     5 ar  
     9     4    12 1   
    10     5     6 ar  
    11     5    17 1   
    12     6    18 1   
    13     7     8 2   
    14     7    15 1   
    15     8     9 1   
    16     8    19 1   
    17     9    10 1   
    18     9    16 2   
    19    10    20 1   
    20    11    14 1   
    21    12    13 1   
    22    13    21 1   
    23    13    22 1   
    24    13    23 1   
    25    14    24 1   
    26    14    25 1   
    27    14    26 1   
    28    15    27 1   
    29    15    28 1   
    30    15    29 1   
@<TRIPOS>SUBSTRUCTURE
     1 MZX         1 TEMP              0 ****  ****    0 ROOT
