@<TRIPOS>MOLECULE
molecule
   10    10     1     0     0
SMALL
bcc


@<TRIPOS>ATOM
      1 S2           0.0000     0.0000     0.0000 s          1 MZY      -0.671400
      2 C2           1.7120     0.0000     0.0000 cs         1 MZY       0.525400
      3 N3           2.5030     0.0000     1.0910 ns         1 MZY      -0.369100
      4 C3A          3.8220     0.0000     0.6640 cc         1 MZY      -0.125400
      5 C1A          3.8220     0.0010    -0.6640 cd         1 MZY      -0.125400
      6 N1           2.5030    -0.0060    -1.0910 ns         1 MZY      -0.369100
      7 H1           4.5670     0.5700     1.2060 h4         1 MZY       0.188000
      8 H2           4.5700    -0.5660    -1.2060 h4         1 MZY       0.188000
      9 H3           2.1930    -0.0000     2.0430 hn         1 MZY       0.379500
     10 H4           2.1930    -0.0070    -2.0430 hn         1 MZY       0.379500
@<TRIPOS>BOND
     1     1     2 2
     2     2     3 1
     3     2     6 1
     4     3     4 1
     5     6     5 1
     6     4     5 2
     7     4     7 1
     8     5     8 1
     9     3     9 1
    10     6    10 1
@<TRIPOS>SUBSTRUCTURE
     1 MZY         1 TEMP              0 ****  ****    0 ROOT
