@<TRIPOS>MOLECULE
molecule
   23    24     1     0     0
SMALL
bcc


@<TRIPOS>ATOM
      1 C1           0.0000     0.0000     0.0000 ca         1 MZZ       0.199600
      2 C2           1.3930     0.0000     0.0000 ca         1 MZZ      -0.153500
      3 C3           2.0800     0.0000     1.1860 ca         1 MZZ      -0.083000
      4 C4           1.3800     0.0020     2.3980 ca         1 MZZ      -0.170600
      5 C5          -0.0180     0.0030     2.3940 ca         1 MZZ      -0.083000
      6 C6          -0.7000     0.0020     1.2040 ca         1 MZZ      -0.153500
      7 N7          -0.6940     0.0050    -1.2040 nv         1 MZZ      -0.993200
      8 C8           2.1160     0.0020     3.6750 c          1 MZZ       0.581500
      9 N9           1.6440     0.7040     4.7230 n          1 MZZ      -0.183000
     10 O12          3.1480    -0.6300     3.7810 o          1 MZZ      -0.538100
     11 C17          2.2520     0.8560     5.9470 cc         1 MZZ      -0.235600
     12 C18          1.4400     1.6270     6.6920 cd         1 MZZ       0.315200
     13 N19          0.3640     1.9410     5.9540 nd         1 MZZ      -0.680000
     14 C20          0.4740     1.4010     4.7730 cc         1 MZZ       0.399400
     15 H2           1.9340    -0.0020    -0.9390 ha         1 MZZ       0.145500
     16 H3           3.1630    -0.0000     1.1850 ha         1 MZZ       0.147500
     17 H5          -0.5620     0.0050     3.3310 ha         1 MZZ       0.147500
     18 H6          -1.7830     0.0020     1.2010 ha         1 MZZ       0.145500
     19 HN7         -0.9420     0.8740    -1.6360 hn         1 MZZ       0.434300
     20 HN7A        -0.9460    -0.8600    -1.6400 hn         1 MZZ       0.434300
     21 H17          3.2030     0.4360     6.2520 h4         1 MZZ       0.193000
     22 H18          1.6230     1.9380     7.7130 h4         1 MZZ       0.047100
     23 H20         -0.2470     1.4860     3.9690 h5         1 MZZ       0.082100
@<TRIPOS>BOND
     1     1     2 ar
     2     1     6 ar
     3     1     7 1
     4     2     3 ar
     5     3     4 ar
     6     4     5 ar
     7     4     8 1
     8     5     6 ar
     9     8     9 1
    10     8    10 2
    11     9    11 1
    12     9    14 1
    13    11    12 2
    14    12    13 1
    15    13    14 2
    16     2    15 1
    17     3    16 1
    18     5    17 1
    19     6    18 1
    20     7    19 1
    21     7    20 1
    22    11    21 1
    23    12    22 1
    24    14    23 1
@<TRIPOS>SUBSTRUCTURE
     1 MZZ         1 TEMP              0 ****  ****    0 ROOT
