@<TRIPOS>MOLECULE
molecule
   34    36     1     0     0
SMALL
bcc


@<TRIPOS>ATOM
      1 O            0.0000     0.0000     0.0000 o          1 B00      -0.563500
      2 C1           1.2210     0.0000     0.0000 c          1 B00       0.681700
      3 N2           1.9080     0.0000     1.1620 n          1 B00      -0.356300
      4 C5           1.1920    -0.0000     2.4400 c3         1 B00       0.041300
      5 C4           3.2690    -0.0010     1.1420 cc         1 B00       0.468800
      6 N3           3.9580    -0.0010     2.3240 nz         1 B00      -0.729600
      7 N1           3.9330    -0.0020     0.0030 nd         1 B00      -0.579300
      8 C3           3.3010    -0.0020    -1.1680 cd         1 B00       0.216400
      9 C2           1.9360    -0.0070    -1.2100 cc         1 B00      -0.200200
     10 C6           4.0920    -0.0030    -2.4510 cx         1 B00      -0.110500
     11 C14          5.6050     0.2000    -2.3460 cx         1 B00      -0.101400
     12 C7           5.0400    -1.1790    -2.6950 cx         1 B00      -0.047400
     13 C8           5.1110    -2.2470    -1.6340 ca         1 B00      -0.062300
     14 C13          4.7830    -3.5530    -1.9470 ca         1 B00      -0.119500
     15 C12          4.8480    -4.5340    -0.9740 ca         1 B00      -0.139500
     16 C11          5.2400    -4.2080     0.3110 ca         1 B00      -0.111000
     17 C10          5.5680    -2.9020     0.6240 ca         1 B00      -0.139500
     18 C9           5.5100    -1.9230    -0.3510 ca         1 B00      -0.119500
     19 H1           1.4790    -0.8720     3.0150 h1         1 B00       0.078367
     20 H2           1.4420     0.8960     2.9940 h1         1 B00       0.078367
     21 H3           0.1250    -0.0250     2.2560 h1         1 B00       0.078367
     22 H4           3.7820    -0.8560     2.8130 hn         1 B00       0.478467
     23 H5           3.6590     0.7720     2.8850 hn         1 B00       0.478467
     24 H6           1.4230     0.1830    -2.1440 ha         1 B00       0.205000
     25 H7           3.6400     0.4090    -3.3450 hc         1 B00       0.121700
     26 H8           6.0620     0.7390    -3.1670 hc         1 B00       0.092700
     27 H9           5.9950     0.3050    -1.3410 hc         1 B00       0.092700
     28 H10          5.1500    -1.4640    -3.7340 hc         1 B00       0.111700
     29 H11          4.4750    -3.8090    -2.9530 ha         1 B00       0.141000
     30 H12          4.5910    -5.5570    -1.2180 ha         1 B00       0.127000
     31 H13          5.2890    -4.9760     1.0730 ha         1 B00       0.141000
     32 H14          5.8780    -2.6470     1.6300 ha         1 B00       0.127000
     33 H15          5.7670    -0.8990    -0.1070 ha         1 B00       0.141000
     34 H33          4.9340     0.1250     2.1410 hn         1 B00       0.478467
@<TRIPOS>BOND
     1    11    10 1
     2    11    12 1
     3     1     2 2
     4     9     2 1
     5     9     8 2
     6    10    12 1
     7    10     8 1
     8    12    13 1
     9    18    17 ar
    10    18    13 ar
    11     2     3 1
    12     8     7 1
    13    17    16 ar
    14    13    14 ar
    15     3     4 1
    16     3     5 1
    17     7     5 2
    18    16    15 ar
    19    14    15 ar
    20     5     6 1
    21     4    19 1
    22     4    20 1
    23     4    21 1
    24     6    22 1
    25     6    23 1
    26     9    24 1
    27    10    25 1
    28    11    26 1
    29    11    27 1
    30    12    28 1
    31    14    29 1
    32    15    30 1
    33    16    31 1
    34    17    32 1
    35    18    33 1
    36    34     6 1
@<TRIPOS>SUBSTRUCTURE
     1 B00         1 TEMP              0 ****  ****    0 ROOT
