@<TRIPOS>MOLECULE
B02
   47    50     1     0     0
SMALL
bcc


@<TRIPOS>ATOM
      1 O            0.0000     0.0000     0.0000 o          1 B02      -0.599500
      2 C1           1.2200     0.0000     0.0000 c          1 B02       0.581700
      3 N2           1.9080     0.0000     1.1620 n          1 B02       0.070700
      4 C5           1.1920    -0.0010     2.4400 c3         1 B02       0.017300
      5 C4           3.2680     0.0000     1.1410 cc         1 B02       0.019800
      6 N3           3.9580     0.0000     2.3240 nz         1 B02       0.204400
      7 N1           3.9330     0.0020     0.0030 nd         1 B02      -0.402300
      8 C3           3.3000     0.0020    -1.1690 cd         1 B02       0.150400
      9 C2           1.9370    -0.0040    -1.2100 cc         1 B02      -0.137200
     10 C6           4.0920     0.0020    -2.4510 cx         1 B02      -0.088500
     11 C21          5.6050     0.2060    -2.3460 cx         1 B02      -0.057400
     12 C7           5.0410    -1.1720    -2.6960 cx         1 B02      -0.006400
     13 C8           5.1130    -2.2420    -1.6370 ca         1 B02      -0.069300
     14 C13          5.5010    -1.9120    -0.3510 ca         1 B02      -0.106500
     15 C12          5.5680    -2.8880     0.6240 ca         1 B02      -0.118000
     16 C11          5.2430    -4.2070     0.3090 cp         1 B02       0.002000
     17 C10          4.8530    -4.5320    -0.9880 ca         1 B02      -0.118000
     18 C9           4.7840    -3.5470    -1.9530 ca         1 B02      -0.106500
     19 C14          5.3130    -5.2600     1.3530 cp         1 B02      -0.052000
     20 C19          5.6980    -4.9330     2.6510 ca         1 B02      -0.118000
     21 C18          5.7620    -5.9170     3.6180 ca         1 B02      -0.091000
     22 C17          5.4430    -7.2240     3.2990 ca         1 B02      -0.083000
     23 C16          5.0620    -7.5540     2.0110 ca         1 B02      -0.071300
     24 C20          4.7170    -8.9810     1.6710 c3         1 B02       0.059200
     25 C15          4.9890    -6.5770     1.0390 ca         1 B02      -0.089000
     26 H1           0.1250    -0.0280     2.2560 h1         1 B02       0.046700
     27 H2           1.4820    -0.8720     3.0150 h1         1 B02       0.046700
     28 H3           1.4410     0.8960     2.9940 h1         1 B02       0.046700
     29 H4           3.6560     0.7700     2.8870 hn         1 B02       0.223467
     30 H5           3.7860    -0.8570     2.8100 hn         1 B02       0.223467
     31 H6           1.4220     0.1830    -2.1450 ha         1 B02       0.168000
     32 H7           3.6400     0.4140    -3.3450 hc         1 B02       0.088700
     33 H8           6.0620     0.7470    -3.1670 hc         1 B02       0.061700
     34 H9           5.9940     0.3110    -1.3410 hc         1 B02       0.061700
     35 H10          5.1520    -1.4570    -3.7350 hc         1 B02       0.078700
     36 H11          5.8090    -0.8990    -0.1220 ha         1 B02       0.120000
     37 H12          5.9500    -2.6450     1.6080 ha         1 B02       0.112500
     38 H13          4.6600    -5.5640    -1.2530 ha         1 B02       0.112500
     39 H14          4.4770    -3.7980    -2.9600 ha         1 B02       0.120000
     40 H15          5.9480    -3.9090     2.9010 ha         1 B02       0.090000
     41 H16          6.0610    -5.6640     4.6280 ha         1 B02       0.106000
     42 H17          5.4950    -7.9930     4.0610 ha         1 B02       0.116000
     43 H18          5.0170    -9.6290     2.4860 hc         1 B02       0.014367
     44 H19          5.2370    -9.2730     0.7670 hc         1 B02       0.014367
     45 H20          3.6480    -9.0680     1.5170 hc         1 B02       0.014367
     46 H21          4.6900    -6.8370     0.0300 ha         1 B02       0.117000
     47 H33          4.9380     0.0910     2.1380 hn         1 B02       0.223467
@<TRIPOS>BOND
     1     1     2 2   
     2     2     3 1   
     3     2     9 1   
     4     3     4 1   
     5     3     5 1   
     6     4    26 1   
     7     4    27 1   
     8     4    28 1   
     9     5     6 1   
    10     5     7 2   
    11     6    29 1   
    12     6    30 1   
    13     6    47 1   
    14     7     8 1   
    15     8     9 2   
    16     8    10 1   
    17     9    31 1   
    18    10    11 1   
    19    10    12 1   
    20    10    32 1   
    21    11    12 1   
    22    11    33 1   
    23    11    34 1   
    24    12    13 1   
    25    12    35 1   
    26    13    14 ar  
    27    13    18 ar  
    28    14    15 ar  
    29    14    36 1   
    30    15    16 ar  
    31    15    37 1   
    32    16    17 ar  
    33    16    19 1   
    34    17    18 ar  
    35    17    38 1   
    36    18    39 1   
    37    19    20 ar  
    38    19    25 ar  
    39    20    21 ar  
    40    20    40 1   
    41    21    22 ar  
    42    21    41 1   
    43    22    23 ar  
    44    22    42 1   
    45    23    24 1   
    46    23    25 ar  
    47    24    43 1   
    48    24    44 1   
    49    24    45 1   
    50    25    46 1   
@<TRIPOS>SUBSTRUCTURE
     1 B02         1 TEMP              0 ****  ****    0 ROOT
