@<TRIPOS>MOLECULE
molecule
   42    44     1     0     0
SMALL
bcc


@<TRIPOS>ATOM
      1 OAB          0.0000     0.0000     0.0000 o          1 B05      -0.199500
      2 OAC          1.8270     0.0040    -1.0550 o          1 B05      -0.199500
      3 CAZ          1.9660    -0.0080     3.6840 ca         1 B05      -0.152600
      4 CAK          4.9530     3.4330     9.2110 ca         1 B05      -0.104500
      5 CAJ          6.0070     1.3190     9.6010 ca         1 B05      -0.104500
      6 CAI         -0.1470    -0.3660     9.7420 ca         1 B05      -0.108000
      7 NBA          1.2180     0.0000     0.0000 no         1 B05       0.294200
      8 CAY          1.7790     0.3690     8.5180 ca         1 B05       0.103100
      9 CAX          1.2200    -0.1280     7.3430 ca         1 B05       0.030600
     10 CAW          1.9580    -0.0020     1.2810 ca         1 B05      -0.166200
     11 CAV          3.3610     0.0000     3.6750 ca         1 B05      -0.066000
     12 CAU          4.8610     2.0860     9.5090 ca         1 B05      -0.100300
     13 CAQ          3.5120     1.4550     9.7340 c3         1 B05       0.191700
     14 CAP          1.2670    -0.0050     2.4760 ca         1 B05      -0.013000
     15 CAO          1.0920     0.2470     9.7160 ca         1 B05      -0.202000
     16 CAN          3.3420    -0.0010     1.2800 ca         1 B05      -0.050000
     17 CAM          4.0410     0.0030     2.4740 ca         1 B05      -0.142000
     18 CAL         -0.0220    -0.7470     7.3790 ca         1 B05      -0.103000
     19 OAA          0.0150    -0.0170     4.9710 o          1 B05      -0.588100
     20 NAR          1.9100    -0.0070     6.1310 ns         1 B05      -0.455100
     21 CAH         -0.7000    -0.8640     8.5770 ca         1 B05      -0.144000
     22 CAF          7.2450     1.8980     9.3950 ca         1 B05      -0.132500
     23 CAE          7.3370     3.2420     9.0860 ca         1 B05      -0.116000
     24 CAG          6.1910     4.0110     8.9990 ca         1 B05      -0.132500
     25 H2           5.9360     0.2640     9.8390 ha         1 B05       0.134500
     26 H3          -0.6830    -0.4610    10.6780 ha         1 B05       0.132000
     27 H4           3.9100     0.0030     4.6090 ha         1 B05       0.142000
     28 H5           2.8320     2.1930    10.1430 h1         1 B05       0.043700
     29 H6           3.6100     0.6300    10.4300 h1         1 B05       0.043700
     30 H7           0.1840    -0.0110     2.4760 ha         1 B05       0.191000
     31 H8           1.5240     0.6340    10.6310 ha         1 B05       0.137000
     32 H9           3.8810     0.0010     0.3400 ha         1 B05       0.169000
     33 H10          5.1250     0.0060     2.4660 ha         1 B05       0.152000
     34 H11         -0.4600    -1.1360     6.4680 ha         1 B05       0.177000
     35 H12          2.8930     0.1820     6.1340 hn         1 B05       0.335500
     36 H13         -1.6710    -1.3450     8.6030 ha         1 B05       0.138000
     37 H14          8.1430     1.2960     9.4650 ha         1 B05       0.133500
     38 H15          8.3070     3.6960     8.9220 ha         1 B05       0.132000
     39 H16          6.2620     5.0660     8.7610 ha         1 B05       0.133500
     40 CAT          1.2310    -0.0100     4.9670 c          1 B05       0.673700
     41 OAS          2.9990     0.9720     8.4910 os         1 B05      -0.342900
     42 H1           4.0550     4.0350     9.1410 ha         1 B05       0.134500
@<TRIPOS>BOND
     1     1     7 1
     2    16    17 ar
     3    16    10 ar
     4    17    11 ar
     5     7    10 1
     6     7     2 1
     7    10    14 ar
     8    11     3 ar
     9    23    22 ar
    10    23    24 ar
    11    22     5 ar
    12    14     3 ar
    13     3    40 1
    14    24     4 ar
    15     5    12 ar
    16    40    19 2
    17    40    20 1
    18     4    12 ar
    19    12    13 1
    20    20     9 1
    21    13    41 1
    22    41     8 1
    23     9     8 ar
    24     9    18 ar
    25     8    15 ar
    26    18    21 ar
    27    15     6 ar
    28    21     6 ar
    29     4    42 1
    30     5    25 1
    31     6    26 1
    32    11    27 1
    33    13    28 1
    34    13    29 1
    35    14    30 1
    36    15    31 1
    37    16    32 1
    38    17    33 1
    39    18    34 1
    40    20    35 1
    41    21    36 1
    42    22    37 1
    43    23    38 1
    44    24    39 1
@<TRIPOS>SUBSTRUCTURE
     1 B05         1 TEMP              0 ****  ****    0 ROOT
