@<TRIPOS>MOLECULE
molecule
   32    34     1     0     0
SMALL
bcc


@<TRIPOS>ATOM
      1 O01          0.0000     0.0000     0.0000 o          1 B06      -0.809300
      2 C02          1.2150     0.0000     0.0000 c          1 B06       0.862200
      3 O03          1.8890     0.0000     1.1670 o          1 B06      -0.809300
      4 C04          1.9530    -0.0050    -1.2800 ca         1 B06      -0.017600
      5 C05          3.3460    -0.0100    -1.2860 ca         1 B06      -0.088000
      6 C06          4.0350    -0.0150    -2.4840 ca         1 B06      -0.152000
      7 C07          3.3470    -0.0150    -3.6860 ca         1 B06      -0.144000
      8 C08          1.9690    -0.0100    -3.6980 ca         1 B06      -0.120300
      9 C09          0.9460    -0.0070    -4.8070 c3         1 B06       0.149300
     10 N10         -0.3680    -0.0010    -4.1540 n          1 B06      -0.395000
     11 C11         -0.1880     0.0000    -2.8220 c          1 B06       0.703100
     12 O12         -1.0820     0.0060    -2.0000 o          1 B06      -0.524500
     13 C13          1.2540    -0.0100    -2.5020 ca         1 B06      -0.129600
     14 C14         -1.6030     0.0030    -4.8090 ca         1 B06       0.113600
     15 C15         -1.6540     0.0010    -6.1980 ca         1 B06      -0.172000
     16 C16         -2.8760     0.0050    -6.8410 ca         1 B06      -0.113000
     17 C17         -4.0470     0.0110    -6.1050 ca         1 B06      -0.140000
     18 C18         -3.9990     0.0130    -4.7240 ca         1 B06      -0.154300
     19 C19         -2.7800     0.0040    -4.0730 ca         1 B06      -0.121000
     20 C20         -5.2770     0.0210    -3.9270 c3         1 B06       0.674200
     21 F21         -6.3720     0.0240    -4.7990 f          1 B06      -0.226300
     22 F22         -5.3290    -1.1200    -3.1180 f          1 B06      -0.226300
     23 F23         -5.3200     1.1640    -3.1230 f          1 B06      -0.226300
     24 H2           4.0230    -0.0100    -0.4400 ha         1 B06       0.152000
     25 H3           5.1180    -0.0200    -2.4940 ha         1 B06       0.113000
     26 H4           3.9830    -0.0200    -4.5630 ha         1 B06       0.107000
     27 H5           1.0620     0.8810    -5.4160 h1         1 B06       0.046700
     28 H6           1.0550    -0.8980    -5.4130 h1         1 B06       0.046700
     29 H7          -0.7370    -0.0030    -6.7750 ha         1 B06       0.130000
     30 H8          -2.9170     0.0040    -7.9240 ha         1 B06       0.125000
     31 H9          -5.0040     0.0160    -6.6130 ha         1 B06       0.136000
     32 H10         -2.7440     0.0060    -2.9900 ha         1 B06       0.209000
@<TRIPOS>BOND
     1    21    20 1
     2    23    20 1
     3    22    20 1
     4    20    18 1
     5    18    17 ar
     6    18    19 ar
     7    17    16 ar
     8    19    14 ar
     9    12    11 2
    10     1     2 1
    11     3     2 1
    12     2     4 1
    13    16    15 ar
    14    14    15 ar
    15    14    10 1
    16    11    10 1
    17    11    13 1
    18    10     9 1
    19     4    13 ar
    20     4     5 ar
    21    13     8 ar
    22     9     8 1
    23     5     6 ar
    24     8     7 ar
    25     6     7 ar
    26     5    24 1
    27     6    25 1
    28     7    26 1
    29     9    27 1
    30     9    28 1
    31    15    29 1
    32    16    30 1
    33    17    31 1
    34    19    32 1
@<TRIPOS>SUBSTRUCTURE
     1 B06         1 TEMP              0 ****  ****    0 ROOT
