@<TRIPOS>MOLECULE
B09
   21    21     1     0     0
SMALL
bcc


@<TRIPOS>ATOM
      1 C1           0.0000     0.0000     0.0000 ca         1 B09      -0.157500
      2 N1          -1.1260    -1.5830    -1.9500 n7         1 B09      -0.377600
      3 O1          -2.1650     0.5430    -1.2490 o          1 B09      -0.578800
      4 S1          -0.8810    -0.0000    -1.5260 sy         1 B09       1.056200
      5 C2           1.3820     0.0000     0.0000 ca         1 B09       0.009500
      6 O2           0.0000     0.5440    -2.4990 o          1 B09      -0.578800
      7 C3           2.0730     0.0000     1.1970 ca         1 B09      -0.135000
      8 O3          -1.9450    -2.4120    -1.1480 os         1 B09      -0.200100
      9 C4           1.3820     0.0010     2.3940 ca         1 B09      -0.046000
     10 C5          -0.0000     0.0020     2.3940 ca         1 B09      -0.135000
     11 C6          -0.6910     0.0050     1.1970 ca         1 B09       0.009500
     12 C7          -2.0680    -3.7510    -1.6310 c3         1 B09       0.246700
     13 HN1         -0.7170    -1.9450    -2.7890 hn         1 B09       0.334800
     14 H2           1.9230    -0.0010    -0.9380 ha         1 B09       0.123000
     15 H3           3.1560    -0.0000     1.1970 ha         1 B09       0.108500
     16 H4           1.9240    -0.0000     3.3320 ha         1 B09       0.101000
     17 H5          -0.5420     0.0040     3.3330 ha         1 B09       0.108500
     18 H6          -1.7740     0.0060     1.1970 ha         1 B09       0.123000
     19 H7          -1.0900    -4.2150    -1.6610 h1         1 B09      -0.003967
     20 H7A         -2.4930    -3.7380    -2.6270 h1         1 B09      -0.003967
     21 H7B         -2.7160    -4.3150    -0.9700 h1         1 B09      -0.003967
@<TRIPOS>BOND
     1     1     4 1   
     2     1     5 ar  
     3     1    11 ar  
     4     2     4 1   
     5     2     8 1   
     6     2    13 1   
     7     3     4 2   
     8     4     6 2   
     9     5     7 ar  
    10     5    14 1   
    11     7     9 ar  
    12     7    15 1   
    13     8    12 1   
    14     9    10 ar  
    15     9    16 1   
    16    10    11 ar  
    17    10    17 1   
    18    11    18 1   
    19    12    19 1   
    20    12    20 1   
    21    12    21 1   
@<TRIPOS>SUBSTRUCTURE
     1 B09         1 TEMP              0 ****  ****    0 ROOT
