@<TRIPOS>MOLECULE
molecule
   36    37     1     0     0
SMALL
bcc


@<TRIPOS>ATOM
      1 N1           0.0000     0.0000     0.0000 ns         1 B0A      -0.585900
      2 C4           4.3340     0.0010    -2.1220 ca         1 B0A       0.140100
      3 C5           5.7100     0.0010    -1.9410 ca         1 B0A      -0.188500
      4 C6           6.5490    -0.0040    -3.0380 ca         1 B0A      -0.091000
      5 C7           2.1020     0.0000    -1.3050 c3         1 B0A       0.064400
      6 C8           1.3480     0.0000     0.0000 c          1 B0A       0.655100
      7 C10         -2.1200     0.6130     1.0540 c3         1 B0A      -0.093900
      8 C13         -1.6440    -1.4240     3.1040 c3         1 B0A      -0.076900
      9 C1           6.0190    -0.0100    -4.3150 ca         1 B0A      -0.166000
     10 C2           4.6490    -0.0090    -4.4980 ca         1 B0A      -0.091000
     11 C3           3.8050    -0.0040    -3.4050 ca         1 B0A      -0.188500
     12 O1           3.5060     0.0000    -1.0440 os         1 B0A      -0.294900
     13 O2           1.9540     0.0000     1.0500 o          1 B0A      -0.575100
     14 C9          -0.7330     0.0060     1.2680 c3         1 B0A       0.120700
     15 C11         -2.8850     0.6200     2.3790 c3         1 B0A      -0.076900
     16 C12         -3.0310    -0.8160     2.8890 c3         1 B0A      -0.083400
     17 C14         -0.8780    -1.4300     1.7790 c3         1 B0A      -0.093900
     18 H1          -0.5000     0.0110    -0.8670 hn         1 B0A       0.309500
     19 H2           6.1250     0.0060    -0.9400 ha         1 B0A       0.138500
     20 H3           7.6230    -0.0040    -2.8980 ha         1 B0A       0.132000
     21 H4           1.8400    -0.8840    -1.8740 h1         1 B0A       0.051700
     22 H5           1.8400     0.8850    -1.8730 h1         1 B0A       0.051700
     23 H6          -2.6630     0.0220     0.3270 hc         1 B0A       0.047450
     24 H7          -2.0150     1.6300     0.6940 hc         1 B0A       0.047450
     25 H8          -1.7480    -2.4400     3.4640 hc         1 B0A       0.045950
     26 H9          -1.1000    -0.8320     3.8310 hc         1 B0A       0.045950
     27 H10          6.6800    -0.0140    -5.1740 ha         1 B0A       0.130000
     28 H11          4.2360    -0.0130    -5.5000 ha         1 B0A       0.132000
     29 H12          2.7320    -0.0040    -3.5480 ha         1 B0A       0.138500
     30 H13         -0.1920     0.5940     2.0000 h1         1 B0A       0.082700
     31 H14         -2.3390     1.2070     3.1070 hc         1 B0A       0.045950
     32 H15         -3.8680     1.0490     2.2250 hc         1 B0A       0.045950
     33 H16         -3.5710    -0.8110     3.8280 hc         1 B0A       0.042200
     34 H17         -3.5720    -1.4040     2.1580 hc         1 B0A       0.042200
     35 H18          0.1050    -1.8590     1.9330 hc         1 B0A       0.047450
     36 H19         -1.4240    -2.0180     1.0510 hc         1 B0A       0.047450
@<TRIPOS>BOND
     1    15    16 1
     2    15     7 1
     3    16     8 1
     4     7    14 1
     5     8    17 1
     6    14    17 1
     7    14     1 1
     8     1     6 1
     9    13     6 2
    10     6     5 1
    11     5    12 1
    12    12     2 1
    13     2     3 ar
    14     2    11 ar
    15     3     4 ar
    16    11    10 ar
    17     4     9 ar
    18    10     9 ar
    19     1    18 1
    20     3    19 1
    21     4    20 1
    22     5    21 1
    23     5    22 1
    24     7    23 1
    25     7    24 1
    26     8    25 1
    27     8    26 1
    28     9    27 1
    29    10    28 1
    30    11    29 1
    31    14    30 1
    32    15    31 1
    33    15    32 1
    34    16    33 1
    35    16    34 1
    36    17    35 1
    37    17    36 1
@<TRIPOS>SUBSTRUCTURE
     1 B0A         1 TEMP              0 ****  ****    0 ROOT
