@<TRIPOS>MOLECULE
molecule
   25    27     1     0     0
SMALL
bcc


@<TRIPOS>ATOM
      1 C4           0.0000     0.0000     0.0000 ca         1 B0E      -0.254000
      2 C5           1.3840     0.0000     0.0000 ca         1 B0E       0.183100
      3 C6           2.0750     0.0000     1.2150 ca         1 B0E      -0.141000
      4 C11          5.5450    -0.3050     2.6040 ca         1 B0E      -0.057000
      5 C7           3.5500    -0.0080     1.2540 ca         1 B0E       0.014000
      6 C8           4.3370     0.2330     0.1380 ca         1 B0E      -0.121000
      7 C9           5.7120     0.2040     0.2590 ca         1 B0E      -0.098000
      8 C10          6.3120    -0.0640     1.4810 ca         1 B0E      -0.143000
      9 C12          4.1600    -0.2770     2.5020 ca         1 B0E      -0.186600
     10 C3          -0.6970     0.0040     1.2010 ca         1 B0E       0.172100
     11 C            3.2690    -0.5180     3.6500 c          1 B0E       0.756200
     12 O            3.6330    -1.1850     4.6000 o          1 B0E      -0.549500
     13 C1           1.3690     0.0050     2.4290 ca         1 B0E       0.191100
     14 C2          -0.0170     0.0130     2.4090 ca         1 B0E      -0.195000
     15 O1           2.0330     0.0300     3.6120 os         1 B0E      -0.319200
     16 O2          -2.0550    -0.0010     1.1930 oh         1 B0E      -0.516100
     17 O3           2.0670    -0.0000    -1.1730 oh         1 B0E      -0.499100
     18 H1          -0.5410    -0.0070    -0.9390 ha         1 B0E       0.149000
     19 H2           6.0200    -0.5140     3.5550 ha         1 B0E       0.152000
     20 H3           3.8770     0.4430    -0.8200 ha         1 B0E       0.168000
     21 H4           6.3300     0.3910    -0.6110 ha         1 B0E       0.135000
     22 H5           7.3920    -0.0830     1.5550 ha         1 B0E       0.137000
     23 H6          -0.5700     0.0170     3.3410 ha         1 B0E       0.164000
     24 H7          -2.3720     0.8870     1.1850 ho         1 B0E       0.429000
     25 H8           1.6010    -0.5190    -1.8080 ho         1 B0E       0.428000
@<TRIPOS>BOND
     1    12    11 2
     2    15    11 1
     3    15    13 1
     4    11     9 1
     5    14    13 ar
     6    14    10 ar
     7    13     3 ar
     8     9     4 ar
     9     9     5 ar
    10     4     8 ar
    11    16    10 1
    12    10     1 ar
    13     3     5 1
    14     3     2 ar
    15     8     7 ar
    16     5     6 ar
    17     1     2 ar
    18     2    17 1
    19     7     6 ar
    20     1    18 1
    21     4    19 1
    22     6    20 1
    23     7    21 1
    24     8    22 1
    25    14    23 1
    26    16    24 1
    27    17    25 1
@<TRIPOS>SUBSTRUCTURE
     1 B0E         1 TEMP              0 ****  ****    0 ROOT
