@<TRIPOS>MOLECULE
molecule
   34    35     1     0     0
SMALL
bcc


@<TRIPOS>ATOM
      1 N1           0.0000     0.0000     0.0000 n          1 B0G      -0.480800
      2 C4          -4.1980    -1.7860    -1.3150 ca         1 B0G      -0.101300
      3 C5          -4.8820    -0.9980    -2.2200 ca         1 B0G      -0.102500
      4 C6          -6.2510    -0.8390    -2.1040 ca         1 B0G      -0.133500
      5 C7          -2.7060    -1.9580    -1.4420 c3         1 B0G       0.214700
      6 C8          -0.6860    -0.9340    -0.6880 c          1 B0G       0.755100
      7 C10         -0.1940     1.0320     2.2020 c3         1 B0G      -0.110900
      8 C13          1.4690     0.0000     0.0000 c3         1 B0G       0.115000
      9 C1          -6.9350    -1.4710    -1.0810 ca         1 B0G      -0.117000
     10 C2          -6.2500    -2.2600    -0.1760 ca         1 B0G      -0.133500
     11 C3          -4.8810    -2.4130    -0.2900 ca         1 B0G      -0.102500
     12 O1          -2.0330    -0.9220    -0.6790 os         1 B0G      -0.437900
     13 O2          -0.0910    -1.7870    -1.3160 o          1 B0G      -0.615000
     14 C9          -0.7070     1.0410     0.7590 c3         1 B0G       0.115000
     15 C11          1.3340     1.1780     2.1980 c3         1 B0G       0.147100
     16 C12          1.9620     0.0000     1.4500 c3         1 B0G      -0.110900
     17 O3           1.8140     1.2020     3.5440 oh         1 B0G      -0.603800
     18 H1          -4.3460    -0.5040    -3.0210 ha         1 B0G       0.134500
     19 H2          -6.7870    -0.2210    -2.8140 ha         1 B0G       0.132000
     20 H3          -2.4210    -2.9310    -1.0600 h1         1 B0G       0.057200
     21 H4          -2.4210    -1.8810    -2.4840 h1         1 B0G       0.057200
     22 H5          -0.4660     0.0950     2.6750 hc         1 B0G       0.061950
     23 H6          -0.6350     1.8590     2.7460 hc         1 B0G       0.061950
     24 H7           1.8320     0.8870    -0.5060 h1         1 B0G       0.061950
     25 H8           1.8320    -0.8870    -0.5060 h1         1 B0G       0.061950
     26 H9          -8.0080    -1.3480    -0.9910 ha         1 B0G       0.131000
     27 H10         -6.7860    -2.7530     0.6260 ha         1 B0G       0.132000
     28 H11         -4.3440    -3.0320     0.4200 ha         1 B0G       0.134500
     29 H12         -0.5150     2.0090     0.3120 h1         1 B0G       0.061950
     30 H13         -1.7710     0.8350     0.7510 h1         1 B0G       0.061950
     31 H14          1.6030     2.1020     1.7000 h1         1 B0G       0.028700
     32 H15          3.0410     0.0980     1.4630 hc         1 B0G       0.061950
     33 H16          1.6720    -0.9270     1.9290 hc         1 B0G       0.061950
     34 H17          2.2610     2.0170     3.7040 ho         1 B0G       0.401000
@<TRIPOS>BOND
     1    17    15 1
     2    16    15 1
     3    16     8 1
     4    15     7 1
     5     8     1 1
     6     7    14 1
     7    14     1 1
     8     1     6 1
     9    10    11 ar
    10    10     9 ar
    11    12     6 1
    12    12     5 1
    13     6    13 2
    14    11     2 ar
    15     9     4 ar
    16     2     5 1
    17     2     3 ar
    18     4     3 ar
    19     3    18 1
    20     4    19 1
    21     5    20 1
    22     5    21 1
    23     7    22 1
    24     7    23 1
    25     8    24 1
    26     8    25 1
    27     9    26 1
    28    10    27 1
    29    11    28 1
    30    14    29 1
    31    14    30 1
    32    15    31 1
    33    16    32 1
    34    16    33 1
    35    17    34 1
@<TRIPOS>SUBSTRUCTURE
     1 B0G         1 TEMP              0 ****  ****    0 ROOT
