@<TRIPOS>MOLECULE
molecule
   28    29     1     0     0
SMALL
bcc


@<TRIPOS>ATOM
      1 CB1          0.0000     0.0000     0.0000 c3         1 B0I      -0.047800
      2 CG1          1.5080     0.0000     0.0000 ca         1 B0I      -0.080800
      3 CD1          2.1970     0.0000     1.1960 ca         1 B0I      -0.120000
      4 CD2          2.1980    -0.0040    -1.1980 ca         1 B0I      -0.127000
      5 CE1          3.5900    -0.0000     1.1940 cp         1 B0I      -0.030000
      6 CE2          3.5810    -0.0090    -1.2060 ca         1 B0I      -0.124000
      7 CZ1          4.2800     0.0010    -0.0160 ca         1 B0I      -0.125000
      8 CG2          6.4180    -0.0000     3.6720 ca         1 B0I      -0.080800
      9 CD3          5.7290    -0.0000     2.4760 ca         1 B0I      -0.120000
     10 CD4          5.7280    -0.0050     4.8700 ca         1 B0I      -0.127000
     11 CE3          4.3360    -0.0010     2.4780 cp         1 B0I      -0.030000
     12 CE4          4.3440    -0.0060     4.8790 ca         1 B0I      -0.124000
     13 CZ2          3.6450    -0.0010     3.6880 ca         1 B0I      -0.125000
     14 HB11        -0.3610    -0.9840     0.2750 hc         1 B0I       0.043200
     15 HB12        -0.3610     0.2540    -0.9890 hc         1 B0I       0.043200
     16 H1          -0.3610     0.7300     0.7150 hc         1 B0I       0.043200
     17 HD1          1.6550    -0.0010     2.1350 ha         1 B0I       0.134000
     18 HD2          1.6530    -0.0120    -2.1340 ha         1 B0I       0.129000
     19 HE2          4.1170    -0.0100    -2.1480 ha         1 B0I       0.130000
     20 HZ1          5.3630    -0.0010    -0.0220 ha         1 B0I       0.132000
     21 HB22         8.2870     0.9880     3.4130 hc         1 B0I       0.043200
     22 H2           8.2870    -0.2700     4.6570 hc         1 B0I       0.043200
     23 HB21         8.2870    -0.7180     2.9460 hc         1 B0I       0.043200
     24 HD3          6.2690     0.0710     1.5400 ha         1 B0I       0.134000
     25 HD4          6.2730    -0.0090     5.8070 ha         1 B0I       0.129000
     26 HE4          3.8090    -0.0080     5.8200 ha         1 B0I       0.130000
     27 HZ2          2.5620    -0.0020     3.6950 ha         1 B0I       0.132000
     28 CB2          7.9250     0.0000     3.6720 c3         1 B0I      -0.047800
@<TRIPOS>BOND
     1     6     7 ar
     2     6     4 ar
     3     7     5 ar
     4    13    12 ar
     5    13    11 ar
     6    12    10 ar
     7     4     2 ar
     8     5    11 1
     9     5     3 ar
    10    11     9 ar
    11    10     8 ar
    12     9     8 ar
    13     8    28 1
    14     2     3 ar
    15     2     1 1
    16     1    14 1
    17     1    15 1
    18     1    16 1
    19     3    17 1
    20     4    18 1
    21     6    19 1
    22     7    20 1
    23    28    21 1
    24    28    22 1
    25    28    23 1
    26     9    24 1
    27    10    25 1
    28    12    26 1
    29    13    27 1
@<TRIPOS>SUBSTRUCTURE
     1 B0I         1 TEMP              0 ****  ****    0 ROOT
