@<TRIPOS>MOLECULE
B0J
   38    39     1     0     0
SMALL
bcc


@<TRIPOS>ATOM
      1 N1           0.0000     0.0000     0.0000 n7         1 B0J      -0.580200
      2 C4           1.4690     0.0000     0.0000 c3         1 B0J       0.111500
      3 C5           1.9810     0.0000     1.4430 c3         1 B0J      -0.101400
      4 C6           3.5100    -0.0790     1.4340 c3         1 B0J       0.212400
      5 C7          -0.5270     1.3660     0.1190 c3         1 B0J       0.202100
      6 C8          -2.0340     1.3270     0.1160 ca         1 B0J      -0.113300
      7 C10         -4.1040     1.3820    -1.0850 ca         1 B0J      -0.138500
      8 C13         -2.7230     1.2030     1.3070 ca         1 B0J      -0.068000
      9 C2           3.5100    -1.2880    -0.6390 c3         1 B0J       0.157800
     10 C3           1.9810    -1.2560    -0.7120 c3         1 B0J      -0.049400
     11 O1           3.9200    -1.2540     0.7300 os         1 B0J      -0.399600
     12 C9          -2.7240     1.4170    -1.0790 ca         1 B0J      -0.068000
     13 C11         -4.7990     1.2530     0.1100 ca         1 B0J       0.125100
     14 C12         -4.1040     1.1670     1.3080 ca         1 B0J      -0.138500
     15 O2          -6.1580     1.2170     0.1060 oh         1 B0J      -0.501100
     16 C14          4.0810    -0.0720    -1.3720 c3         1 B0J      -0.017600
     17 H1          -0.3340    -0.5540     0.7640 hn         1 B0J       0.260800
     18 H3           1.8360     0.8810    -0.5130 h1         1 B0J       0.040700
     19 H4           1.5790    -0.8570     1.9690 hc         1 B0J       0.026200
     20 H5           1.6700     0.9130     1.9360 hc         1 B0J       0.026200
     21 H6           3.9140     0.7960     0.9390 h1         1 B0J       0.011700
     22 H7           3.8750    -0.1250     2.4530 h1         1 B0J       0.011700
     23 H8          -0.1790     1.9610    -0.7170 h1         1 B0J       0.010200
     24 H9          -0.1790     1.8080     1.0450 h1         1 B0J       0.010200
     25 H10         -4.6440     1.4510    -2.0220 ha         1 B0J       0.113500
     26 H11         -2.1800     1.1360     2.2420 ha         1 B0J       0.106000
     27 H12          3.6310    -3.4290    -0.7690 hc         1 B0J       0.013367
     28 H13          3.7060    -2.5990    -2.3300 hc         1 B0J       0.013367
     29 H14          5.1090    -2.5850    -1.2520 hc         1 B0J       0.013367
     30 H15          1.5780    -2.1360    -0.2260 hc         1 B0J       0.032200
     31 H16          1.6700    -1.2350    -1.7500 hc         1 B0J       0.032200
     32 H17         -2.1810     1.5180    -2.0110 ha         1 B0J       0.106000
     33 H18         -4.6430     1.0680     2.2420 ha         1 B0J       0.113500
     34 H19         -6.4480     0.3240     0.0260 ho         1 B0J       0.403000
     35 H20          3.7420    -0.0790    -2.4010 hc         1 B0J       0.013367
     36 H21          5.1640    -0.1120    -1.3490 hc         1 B0J       0.013367
     37 H22          3.7430     0.8350    -0.8860 hc         1 B0J       0.013367
     38 C1           4.0270    -2.5690    -1.2950 c3         1 B0J      -0.017600
@<TRIPOS>BOND
     1     1     2 1   
     2     1     5 1   
     3     1    17 1   
     4     2     3 1   
     5     2    10 1   
     6     2    18 1   
     7     3     4 1   
     8     3    19 1   
     9     3    20 1   
    10     4    11 1   
    11     4    21 1   
    12     4    22 1   
    13     5     6 1   
    14     5    23 1   
    15     5    24 1   
    16     6     8 ar  
    17     6    12 ar  
    18     7    12 ar  
    19     7    13 ar  
    20     7    25 1   
    21     8    14 ar  
    22     8    26 1   
    23     9    10 1   
    24     9    11 1   
    25     9    16 1   
    26     9    38 1   
    27    10    30 1   
    28    10    31 1   
    29    12    32 1   
    30    13    14 ar  
    31    13    15 1   
    32    14    33 1   
    33    15    34 1   
    34    16    35 1   
    35    16    36 1   
    36    16    37 1   
    37    27    38 1   
    38    28    38 1   
    39    29    38 1   
@<TRIPOS>SUBSTRUCTURE
     1 B0J         1 TEMP              0 ****  ****    0 ROOT
