@<TRIPOS>MOLECULE
B0K
   27    28     1     0     0
SMALL
bcc


@<TRIPOS>ATOM
      1 C2           0.0000     0.0000     0.0000 ca         1 B0K       0.092400
      2 C3           1.4040     0.0000     0.0000 ca         1 B0K      -0.241200
      3 C4           2.0980     0.0000     1.2030 ca         1 B0K       0.059100
      4 C5           1.4040    -0.0000     2.3960 ca         1 B0K       0.070100
      5 C6           0.0140    -0.0010     2.4020 ca         1 B0K       0.020100
      6 N9          -0.3960     0.0010    -1.2990 nc         1 B0K      -0.460100
      7 C16          5.1150    -1.4350    -2.4290 c3         1 B0K      -0.045200
      8 C1          -0.6890     0.0050     1.2170 ca         1 B0K       0.105100
      9 C15          3.6800    -1.4350    -1.8970 c3         1 B0K      -0.067400
     10 C8           0.6470     0.0020    -2.0750 cd         1 B0K       0.264700
     11 N17          5.6160    -2.8150    -2.4870 nz         1 B0K       0.088400
     12 N7           1.7850     0.0010    -1.3280 na         1 B0K       0.278700
     13 Br1          3.9890    -0.0000     1.2080 br         1 B0K      -0.143100
     14 Br2          2.3500    -0.0020     4.0330 br         1 B0K      -0.036100
     15 Br3         -0.9180     0.0050     4.0470 br         1 B0K      -0.026100
     16 Br4         -2.5800     0.0050     1.2380 br         1 B0K      -0.027100
     17 H1           3.7870     0.5870    -1.1780 h1         1 B0K       0.052700
     18 H2           3.1740     0.4330    -2.8310 h1         1 B0K       0.052700
     19 H3           5.7440    -0.8490    -1.7700 hx         1 B0K       0.087200
     20 H4           5.1320    -1.0030    -3.4220 hx         1 B0K       0.087200
     21 H5           3.0510    -2.0210    -2.5560 hc         1 B0K       0.048200
     22 H6           3.6630    -1.8670    -0.9040 hc         1 B0K       0.048200
     23 H7           0.6150     0.0030    -3.1580 h5         1 B0K       0.034800
     24 H8           6.5550    -2.8140    -2.8340 hn         1 B0K       0.225800
     25 H9           5.6000    -3.2140    -1.5690 hn         1 B0K       0.225800
     26 C14          3.1580     0.0010    -1.8370 c3         1 B0K      -0.021700
     27 H173         5.0350    -3.3550    -3.0960 hn         1 B0K       0.225800
@<TRIPOS>BOND
     1     1     2 ar  
     2     1     6 1   
     3     1     8 ar  
     4     2     3 ar  
     5     2    12 1   
     6     3     4 ar  
     7     3    13 1   
     8     4     5 ar  
     9     4    14 1   
    10     5     8 ar  
    11     5    15 1   
    12     6    10 2   
    13     7     9 1   
    14     7    11 1   
    15     7    19 1   
    16     7    20 1   
    17     8    16 1   
    18     9    21 1   
    19     9    22 1   
    20     9    26 1   
    21    10    12 1   
    22    10    23 1   
    23    11    24 1   
    24    11    25 1   
    25    11    27 1   
    26    12    26 1   
    27    17    26 1   
    28    18    26 1   
@<TRIPOS>SUBSTRUCTURE
     1 B0K         1 TEMP              0 ****  ****    0 ROOT
