@<TRIPOS>MOLECULE
molecule
   27    28     1     0     0
SMALL
bcc


@<TRIPOS>ATOM
      1 C2           0.0000     0.0000     0.0000 ca         1 B0K       0.123400
      2 C3           1.4040     0.0000     0.0000 ca         1 B0K      -0.075200
      3 C4           2.0980     0.0000     1.2030 ca         1 B0K      -0.003900
      4 C5           1.4040    -0.0000     2.3960 ca         1 B0K       0.042100
      5 C6           0.0140    -0.0010     2.4020 ca         1 B0K      -0.007900
      6 N9          -0.3960     0.0010    -1.2990 nc         1 B0K      -0.551100
      7 C16          5.1150    -1.4350    -2.4290 c3         1 B0K       0.095800
      8 C1          -0.6890     0.0050     1.2170 ca         1 B0K       0.075100
      9 C15          3.6800    -1.4350    -1.8970 c3         1 B0K      -0.141400
     10 C8           0.6470     0.0020    -2.0750 cd         1 B0K       0.441700
     11 N17          5.6160    -2.8150    -2.4870 nz         1 B0K      -0.808600
     12 N7           1.7850     0.0010    -1.3280 na         1 B0K      -0.166300
     13 Br1          3.9890    -0.0000     1.2080 br         1 B0K      -0.099100
     14 Br2          2.3500    -0.0020     4.0330 br         1 B0K      -0.009100
     15 Br3         -0.9180     0.0050     4.0470 br         1 B0K      -0.001100
     16 Br4         -2.5800     0.0050     1.2380 br         1 B0K       0.001900
     17 H1           3.7870     0.5870    -1.1780 h1         1 B0K       0.085200
     18 H2           3.1740     0.4330    -2.8310 h1         1 B0K       0.085200
     19 H3           5.7440    -0.8490    -1.7700 hx         1 B0K       0.114200
     20 H4           5.1320    -1.0030    -3.4220 hx         1 B0K       0.114200
     21 H5           3.0510    -2.0210    -2.5560 hc         1 B0K       0.080200
     22 H6           3.6630    -1.8670    -0.9040 hc         1 B0K       0.080200
     23 H7           0.6150     0.0030    -3.1580 h5         1 B0K       0.085800
     24 H8           6.5550    -2.8140    -2.8340 hn         1 B0K       0.460467
     25 H9           5.6000    -3.2140    -1.5690 hn         1 B0K       0.460467
     26 C14          3.1580     0.0010    -1.8370 c3         1 B0K       0.055300
     27 H173         5.0350    -3.3550    -3.0960 hn         1 B0K       0.460467
@<TRIPOS>BOND
     1    15     5 1
     2    16     8 1
     3     5     8 ar
     4     5     4 ar
     5     8     1 ar
     6    14     4 1
     7     4     3 ar
     8     1     6 1
     9     1     2 ar
    10     6    10 2
    11     3     2 ar
    12     3    13 1
    13     2    12 1
    14    10    12 1
    15    12    26 1
    16    26     9 1
    17     9     7 1
    18     7    11 1
    19    26    17 1
    20    26    18 1
    21     7    19 1
    22     7    20 1
    23     9    21 1
    24     9    22 1
    25    10    23 1
    26    11    24 1
    27    11    25 1
    28    27    11 1
@<TRIPOS>SUBSTRUCTURE
     1 B0K         1 TEMP              0 ****  ****    0 ROOT
