@<TRIPOS>MOLECULE
molecule
   35    37     1     0     0
SMALL
bcc


@<TRIPOS>ATOM
      1 N1           0.0000     0.0000     0.0000 n3         1 B0M      -0.733600
      2 N3          -1.4180     3.7450     5.9740 na         1 B0M      -0.183400
      3 C4           1.9760     0.0000     1.4450 c3         1 B0M       0.103500
      4 C5           1.4690     0.0000     0.0000 c3         1 B0M       0.144800
      5 C7           1.4520     3.0480     3.6690 ca         1 B0M      -0.123600
      6 C8           1.9900     4.3420     3.7010 ca         1 B0M      -0.107000
      7 C10          0.2460     5.0270     5.1870 ca         1 B0M      -0.084800
      8 C13         -0.3030     3.7290     5.1620 ca         1 B0M      -0.053200
      9 C1          -0.5270    -0.1730    -1.3610 c3         1 B0M       0.153100
     10 C2          -0.5330     1.2200     0.6190 c3         1 B0M       0.144800
     11 C3          -0.1080     1.2700     2.0900 c3         1 B0M       0.103500
     12 N2           1.3540     1.1260     2.1590 n          1 B0M      -0.490800
     13 O1           3.3160     1.9300     2.8180 o          1 B0M      -0.606100
     14 C9           1.3970     5.3160     4.4470 ca         1 B0M      -0.089000
     15 C11         -0.6140     5.8120     6.0710 cc         1 B0M      -0.203200
     16 C12         -1.5880     4.9920     6.5040 cd         1 B0M      -0.095100
     17 C14          0.3060     2.7440     4.4010 ca         1 B0M      -0.124000
     18 H3           1.7020    -0.9310     1.9260 h1         1 B0M       0.064450
     19 H4           3.0530     0.1160     1.4520 h1         1 B0M       0.064450
     20 H5           1.8290    -0.8860    -0.5080 h1         1 B0M       0.042200
     21 H6           1.8290     0.8860    -0.5080 h1         1 B0M       0.042200
     22 H7           2.8820     4.5690     3.1300 ha         1 B0M       0.149000
     23 H8          -0.1490    -1.0980    -1.7800 h1         1 B0M       0.032700
     24 H9          -0.2110     0.6590    -1.9790 h1         1 B0M       0.032700
     25 H10         -1.6090    -0.2080    -1.3280 h1         1 B0M       0.032700
     26 H11         -0.1410     2.0870     0.1010 h1         1 B0M       0.042200
     27 H12         -1.6140     1.2130     0.5560 h1         1 B0M       0.042200
     28 H13         -0.5790     0.4590     2.6320 h1         1 B0M       0.064450
     29 H14         -0.4010     2.2200     2.5200 h1         1 B0M       0.064450
     30 H15          1.8180     6.3140     4.4670 ha         1 B0M       0.136000
     31 H16         -0.4930     6.8580     6.3250 ha         1 B0M       0.157000
     32 H17         -2.3900     5.2780     7.1740 h4         1 B0M       0.166000
     33 H18         -0.0340     1.7170     4.4710 ha         1 B0M       0.134000
     34 C6           2.1040     2.0010     2.8570 c          1 B0M       0.679700
     35 H2          -2.0150     2.9600     6.1470 hn         1 B0M       0.296700
@<TRIPOS>BOND
     1     9     1 1
     2     1     4 1
     3     1    10 1
     4     4     3 1
     5    10    11 1
     6     3    12 1
     7    11    12 1
     8    12    34 1
     9    34    13 2
    10    34     5 1
    11     5     6 ar
    12     5    17 ar
    13     6    14 ar
    14    17     8 ar
    15    14     7 ar
    16     8     7 ar
    17     8     2 1
    18     7    15 1
    19     2    16 1
    20    15    16 2
    21     2    35 1
    22     3    18 1
    23     3    19 1
    24     4    20 1
    25     4    21 1
    26     6    22 1
    27     9    23 1
    28     9    24 1
    29     9    25 1
    30    10    26 1
    31    10    27 1
    32    11    28 1
    33    11    29 1
    34    14    30 1
    35    15    31 1
    36    16    32 1
    37    17    33 1
@<TRIPOS>SUBSTRUCTURE
     1 B0M         1 TEMP              0 ****  ****    0 ROOT
