@<TRIPOS>MOLECULE
molecule
   34    36     1     0     0
SMALL
bcc


@<TRIPOS>ATOM
      1 C4           0.0000     0.0000     0.0000 ca         1 B0N      -0.035300
      2 C14          2.0590     0.0000     1.2070 ca         1 B0N      -0.065200
      3 C5          -0.7470     0.0010    -1.3080 c3         1 B0N       0.010200
      4 C6          -0.9970    -1.4190    -1.7450 ca         1 B0N      -0.084300
      5 C7          -2.1510    -2.0710    -1.3510 ca         1 B0N      -0.114000
      6 C8          -2.3800    -3.3740    -1.7510 ca         1 B0N      -0.128000
      7 C9          -1.4550    -4.0260    -2.5450 ca         1 B0N      -0.105000
      8 C10         -0.3010    -3.3750    -2.9380 ca         1 B0N      -0.084300
      9 C12         -0.0750    -2.0700    -2.5430 ca         1 B0N      -0.100000
     10 C13          1.3670     0.0000     0.0000 ca         1 B0N      -0.139000
     11 N1           3.4480    -0.0010     2.9440 nc         1 B0N      -0.145400
     12 N2           2.2530     0.0170     3.4210 nd         1 B0N      -0.212400
     13 C3          -0.7060     0.0060     1.1960 ca         1 B0N      -0.151000
     14 N            3.3910    -0.0010     1.5430 na         1 B0N       0.049900
     15 C            4.5290    -0.0020     0.6200 c3         1 B0N       0.065600
     16 O            0.3980    -3.8620    -5.1800 oh         1 B0N      -0.603800
     17 C1           1.3500     0.0120     2.4200 ca         1 B0N       0.015400
     18 C2          -0.0510     0.0120     2.3930 ca         1 B0N      -0.044000
     19 H1          -0.1570     0.5120    -2.0600 hc         1 B0N       0.058700
     20 H2          -1.6930     0.5130    -1.1840 hc         1 B0N       0.058700
     21 H3           1.6990    -3.7050    -3.5900 h1         1 B0N       0.025200
     22 H4           0.6760    -5.1490    -3.5940 h1         1 B0N       0.025200
     23 H5          -2.8760    -1.5600    -0.7290 ha         1 B0N       0.130000
     24 H6          -3.2850    -3.8840    -1.4420 ha         1 B0N       0.132000
     25 H7          -1.6340    -5.0480    -2.8580 ha         1 B0N       0.133000
     26 H8           0.8100    -1.5460    -2.8840 ha         1 B0N       0.130000
     27 H9           1.9080     0.0830    -0.9350 ha         1 B0N       0.132000
     28 H10         -1.7890     0.0100     1.1790 ha         1 B0N       0.137000
     29 H11          4.5370    -0.9280     0.0590 h1         1 B0N       0.057033
     30 H12          5.4500     0.0870     1.1830 h1         1 B0N       0.057033
     31 H13          4.4400     0.8340    -0.0630 h1         1 B0N       0.057033
     32 H14          1.0280    -4.3090    -5.7200 ho         1 B0N       0.401000
     33 H15         -0.6130     0.0170     3.3190 ha         1 B0N       0.147000
     34 C11          0.7070    -4.0860    -3.8030 c3         1 B0N       0.188700
@<TRIPOS>BOND
     1    16    34 1
     2    34     8 1
     3     8     7 ar
     4     8     9 ar
     5     7     6 ar
     6     9     4 ar
     7     6     5 ar
     8     5     4 ar
     9     4     3 1
    10     3     1 1
    11    13    18 ar
    12    13     1 ar
    13    18    17 ar
    14     1    10 ar
    15    17     2 ar
    16    17    12 1
    17    10     2 ar
    18     2    14 1
    19    12    11 2
    20    14    11 1
    21    14    15 1
    22     3    19 1
    23     3    20 1
    24    34    21 1
    25    34    22 1
    26     5    23 1
    27     6    24 1
    28     7    25 1
    29     9    26 1
    30    10    27 1
    31    13    28 1
    32    15    29 1
    33    15    30 1
    34    15    31 1
    35    16    32 1
    36    18    33 1
@<TRIPOS>SUBSTRUCTURE
     1 B0N         1 TEMP              0 ****  ****    0 ROOT
