@<TRIPOS>MOLECULE
molecule
   41    44     1     0     0
SMALL
bcc


@<TRIPOS>ATOM
      1 CAA          0.0000     0.0000     0.0000 c3         1 B0Q       0.065600
      2 CAC         -1.5190    -0.8980     6.7050 ca         1 B0Q      -0.114000
      3 CAD         -1.0500    -0.3270     7.8730 ca         1 B0Q      -0.133000
      4 CAE         -0.9780    -0.5260     5.4870 ca         1 B0Q      -0.133000
      5 CAF          4.6750     0.5810     7.7600 cc         1 B0Q       0.306200
      6 CAG         -0.0430     0.6190     7.8240 ca         1 B0Q      -0.106500
      7 CAH          0.0290     0.4210     5.4390 ca         1 B0Q      -0.106500
      8 CAI          5.1020     0.0000     1.3500 ca         1 B0Q      -0.176000
      9 CAJ          4.9140     0.0000     0.0000 ca         1 B0Q      -0.033000
     10 CAK          3.5120     1.2380     7.9920 cd         1 B0Q      -0.248600
     11 CAL          2.7210    -0.0010     1.7220 ca         1 B0Q      -0.148000
     12 CAM          1.5940     2.0240     6.5540 c3         1 B0Q       0.083600
     13 CAR          3.4030     0.7020     4.4110 c          1 B0Q       0.622600
     14 CAS          0.4960     0.9920     6.6080 ca         1 B0Q      -0.122300
     15 CAT          4.0110    -0.0000     2.2210 ca         1 B0Q       0.088600
     16 CAU          3.6870     0.7890     5.8540 cd         1 B0Q       0.335000
     17 CAV          3.6150     0.0040    -0.5270 ca         1 B0Q       0.004400
     18 CAW          2.5150     0.0090     0.3480 ca         1 B0Q      -0.053200
     19 NAN          4.7590     0.3240     6.4570 nc         1 B0Q      -0.675000
     20 NAO          3.1360     0.0050    -1.7870 nd         1 B0Q      -0.211400
     21 NAP          1.8490     0.0100    -1.7760 nc         1 B0Q      -0.145400
     22 NAQ          4.2230     0.0010     3.6030 ns         1 B0Q      -0.451100
     23 NAX          1.3940     0.0110    -0.4490 na         1 B0Q       0.051900
     24 NAY          2.8860     1.3760     6.7930 na         1 B0Q      -0.131900
     25 OAB          2.4270     1.2620     3.9480 o          1 B0Q      -0.622100
     26 H1          -0.2030     0.9000     0.5680 h1         1 B0Q       0.058033
     27 H2          -0.6560    -0.0400    -0.8610 h1         1 B0Q       0.058033
     28 H3          -0.1710    -0.8680     0.6250 h1         1 B0Q       0.058033
     29 H5          -1.4730    -0.6190     8.8270 ha         1 B0Q       0.131500
     30 H6          -1.3450    -0.9740     4.5720 ha         1 B0Q       0.131500
     31 H7           5.4120     0.3130     8.5070 h4         1 B0Q       0.046100
     32 H8           0.3240     1.0670     8.7400 ha         1 B0Q       0.143000
     33 H9           0.4520     0.7130     4.4860 ha         1 B0Q       0.143000
     34 H10          6.1090     0.0010     1.7510 ha         1 B0Q       0.142000
     35 H11          5.7680     0.0000    -0.6660 ha         1 B0Q       0.149000
     36 H12          3.1510     1.5870     8.9520 h4         1 B0Q       0.179000
     37 H13          1.8760    -0.0010     2.4000 ha         1 B0Q       0.162000
     38 H14          1.4210     2.7760     7.3150 h1         1 B0Q       0.084700
     39 H15          1.6010     2.4940     5.5780 h1         1 B0Q       0.084700
     40 H16          4.9730    -0.5350     3.9940 hn         1 B0Q       0.352500
     41 H4          -2.3080    -1.6400     6.7430 ha         1 B0Q       0.131000
@<TRIPOS>BOND
     1     2     4 ar
     2     2     3 ar
     3     4     7 ar
     4     3     6 ar
     5     7    14 ar
     6     6    14 ar
     7    14    12 1
     8    12    24 1
     9    10    24 1
    10    10     5 2
    11    24    16 1
    12     5    19 1
    13    16    19 2
    14    16    13 1
    15    25    13 2
    16    13    22 1
    17    22    15 1
    18    15    11 ar
    19    15     8 ar
    20    11    18 ar
    21     1    23 1
    22     8     9 ar
    23    18    23 1
    24    18    17 ar
    25    23    21 1
    26    17     9 ar
    27    17    20 1
    28    21    20 2
    29     1    26 1
    30     1    27 1
    31     1    28 1
    32     2    41 1
    33     3    29 1
    34     4    30 1
    35     5    31 1
    36     6    32 1
    37     7    33 1
    38     8    34 1
    39     9    35 1
    40    10    36 1
    41    11    37 1
    42    12    38 1
    43    12    39 1
    44    22    40 1
@<TRIPOS>SUBSTRUCTURE
     1 B0Q         1 TEMP              0 ****  ****    0 ROOT
