@<TRIPOS>MOLECULE
B0Q
   41    44     1     0     0
SMALL
bcc


@<TRIPOS>ATOM
      1 CAA          0.0000     0.0000     0.0000 c3         1 B0Q       0.038600
      2 CAC         -1.5190    -0.8980     6.7050 ca         1 B0Q      -0.087000
      3 CAD         -1.0500    -0.3270     7.8730 ca         1 B0Q      -0.103500
      4 CAE         -0.9780    -0.5260     5.4870 ca         1 B0Q      -0.103500
      5 CAF          4.6750     0.5810     7.7600 cc         1 B0Q       0.318200
      6 CAG         -0.0430     0.6190     7.8240 ca         1 B0Q      -0.086000
      7 CAH          0.0290     0.4210     5.4390 ca         1 B0Q      -0.086000
      8 CAI          5.1020     0.0000     1.3500 ca         1 B0Q      -0.150000
      9 CAJ          4.9140     0.0000     0.0000 ca         1 B0Q       0.006000
     10 CAK          3.5120     1.2380     7.9920 cd         1 B0Q      -0.422600
     11 CAL          2.7210    -0.0010     1.7220 ca         1 B0Q      -0.112000
     12 CAM          1.5940     2.0240     6.5540 c3         1 B0Q      -0.011400
     13 CAR          3.4030     0.7020     4.4110 c          1 B0Q       0.529600
     14 CAS          0.4960     0.9920     6.6080 ca         1 B0Q      -0.130300
     15 CAT          4.0110    -0.0000     2.2210 ca         1 B0Q      -0.063400
     16 CAU          3.6870     0.7890     5.8540 cd         1 B0Q       0.115000
     17 CAV          3.6150     0.0040    -0.5270 ca         1 B0Q      -0.022600
     18 CAW          2.5150     0.0090     0.3480 ca         1 B0Q      -0.203200
     19 NAN          4.7590     0.3240     6.4570 nc         1 B0Q      -0.599000
     20 NAO          3.1360     0.0050    -1.7870 nc         1 B0Q      -0.130400
     21 NAP          1.8490     0.0100    -1.7760 nd         1 B0Q      -0.326400
     22 NAQ          4.2230     0.0010     3.6030 ns         1 B0Q       0.005900
     23 NAX          1.3940     0.0110    -0.4490 na         1 B0Q       0.456900
     24 NAY          2.8860     1.3760     6.7930 na         1 B0Q       0.383100
     25 OAB          2.4270     1.2620     3.9480 o          1 B0Q      -0.681100
     26 H1          -0.2030     0.9000     0.5680 h1         1 B0Q       0.022700
     27 H2          -0.6560    -0.0400    -0.8610 h1         1 B0Q       0.022700
     28 H3          -0.1710    -0.8680     0.6250 h1         1 B0Q       0.022700
     29 H5          -1.4730    -0.6190     8.8270 ha         1 B0Q       0.104000
     30 H6          -1.3450    -0.9740     4.5720 ha         1 B0Q       0.104000
     31 H7           5.4120     0.3130     8.5070 h4         1 B0Q       0.006100
     32 H8           0.3240     1.0670     8.7400 ha         1 B0Q       0.121500
     33 H9           0.4520     0.7130     4.4860 ha         1 B0Q       0.121500
     34 H10          6.1090     0.0010     1.7510 ha         1 B0Q       0.114000
     35 H11          5.7680     0.0000    -0.6660 ha         1 B0Q       0.113000
     36 H12          3.1510     1.5870     8.9520 h4         1 B0Q       0.156000
     37 H13          1.8760    -0.0010     2.4000 ha         1 B0Q       0.144000
     38 H14          1.4210     2.7760     7.3150 h1         1 B0Q       0.058700
     39 H15          1.6010     2.4940     5.5780 h1         1 B0Q       0.058700
     40 H16          4.9730    -0.5350     3.9940 hn         1 B0Q       0.191500
     41 H4          -2.3080    -1.6400     6.7430 ha         1 B0Q       0.103000
@<TRIPOS>BOND
     1     1    23 1   
     2     1    26 1   
     3     1    27 1   
     4     1    28 1   
     5     2     3 ar  
     6     2     4 ar  
     7     2    41 1   
     8     3     6 ar  
     9     3    29 1   
    10     4     7 ar  
    11     4    30 1   
    12     5    10 2   
    13     5    19 1   
    14     5    31 1   
    15     6    14 ar  
    16     6    32 1   
    17     7    14 ar  
    18     7    33 1   
    19     8     9 ar  
    20     8    15 ar  
    21     8    34 1   
    22     9    17 ar  
    23     9    35 1   
    24    10    24 1   
    25    10    36 1   
    26    11    15 ar  
    27    11    18 ar  
    28    11    37 1   
    29    12    14 1   
    30    12    24 1   
    31    12    38 1   
    32    12    39 1   
    33    13    16 1   
    34    13    22 1   
    35    13    25 2   
    36    15    22 1   
    37    16    19 2   
    38    16    24 1   
    39    17    18 ar  
    40    17    20 1   
    41    18    23 1   
    42    20    21 2   
    43    21    23 1   
    44    22    40 1   
@<TRIPOS>SUBSTRUCTURE
     1 B0Q         1 TEMP              0 ****  ****    0 ROOT
