@<TRIPOS>MOLECULE
molecule
   46    48     1     0     0
SMALL
bcc


@<TRIPOS>ATOM
      1 C1           0.0000     0.0000     0.0000 ca         1 B0R      -0.319300
      2 C2           1.4720     0.0000     0.0000 ca         1 B0R       0.372300
      3 N3           2.1240     0.0000     1.1740 nb         1 B0R      -0.666000
      4 C4           1.4760     0.0000     2.3110 ca         1 B0R       0.495200
      5 C5           0.0800     0.0000     2.3800 ca         1 B0R      -0.128700
      6 C6          -0.6730     0.0000     1.2360 ca         1 B0R      -0.032000
      7 C7          -0.3930    -0.0070    -1.3340 cc         1 B0R       0.151000
      8 N8           0.7180    -0.0040    -2.0860 na         1 B0R      -0.021200
      9 N9           1.8500    -0.0010    -1.2650 nc         1 B0R      -0.258400
     10 N10         -0.5560    -0.0000     3.6300 ns         1 B0R      -0.460100
     11 C11          0.0060     0.6470     4.6710 c          1 B0R       0.680700
     12 C12         -0.6000     0.5490     6.0130 ca         1 B0R      -0.202600
     13 O13          1.0100     1.3120     4.5030 o          1 B0R      -0.568100
     14 C14         -1.5680     1.4740     6.4150 ca         1 B0R       0.153900
     15 C15         -2.1320     1.3740     7.6800 ca         1 B0R       0.095600
     16 C16         -1.7340     0.3600     8.5400 ca         1 B0R      -0.124000
     17 C17         -0.7760    -0.5550     8.1450 ca         1 B0R      -0.155000
     18 C18         -0.2100    -0.4710     6.8870 ca         1 B0R       0.170900
     19 F19          0.7210    -1.3710     6.5040 f          1 B0R      -0.120900
     20 F20         -1.9540     2.4610     5.5770 f          1 B0R      -0.120900
     21 N21         -3.1030     2.2970     8.0880 nu         1 B0R      -0.753500
     22 S22         -3.1600     2.7950     9.6670 s6         1 B0R       1.322900
     23 C23         -1.5400     3.5570     9.9590 c3         1 B0R      -0.223600
     24 C24         -1.4690     4.0640    11.4020 c3         1 B0R      -0.063400
     25 C25         -0.1020     4.7070    11.6490 c3         1 B0R      -0.082100
     26 O26         -4.1850     3.7790     9.6870 o          1 B0R      -0.621800
     27 O27         -3.2860     1.5910    10.4100 o          1 B0R      -0.621800
     28 O28         -1.6690    -0.0160    -1.7910 os         1 B0R      -0.292900
     29 C29         -1.8500    -0.0210    -3.2080 c3         1 B0R       0.114700
     30 H4           2.0440     0.0000     3.2340 h4         1 B0R       0.055100
     31 H6          -1.7560     0.0010     1.2810 ha         1 B0R       0.140000
     32 HN10        -1.4070    -0.5110     3.7580 hn         1 B0R       0.327500
     33 H16         -2.1740     0.2860     9.5270 ha         1 B0R       0.202000
     34 H17         -0.4720    -1.3440     8.8220 ha         1 B0R       0.163000
     35 HN21        -3.6870     2.7390     7.4060 hn         1 B0R       0.473800
     36 H23         -1.4030     4.3880     9.2780 h1         1 B0R       0.103700
     37 H23A        -0.7610     2.8230     9.7950 h1         1 B0R       0.103700
     38 H24         -2.2480     4.7980    11.5660 hc         1 B0R       0.055700
     39 H24A        -1.6060     3.2330    12.0840 hc         1 B0R       0.055700
     40 H25          0.6780     3.9720    11.4850 hc         1 B0R       0.040367
     41 H25A        -0.0510     5.0650    12.6700 hc         1 B0R       0.040367
     42 H25B         0.0350     5.5370    10.9670 hc         1 B0R       0.040367
     43 H29         -1.3840    -0.9040    -3.6290 h1         1 B0R       0.049367
     44 H29A        -1.3950     0.8650    -3.6340 h1         1 B0R       0.049367
     45 H29B        -2.9090    -0.0280    -3.4370 h1         1 B0R       0.049367
     46 HN8          0.7340    -0.0030    -3.0860 hn         1 B0R       0.331700
@<TRIPOS>BOND
     1     7     1 2
     2     1     6 ar
     3     1     2 ar
     4     9     2 2
     5     2     3 ar
     6     3     4 ar
     7     5     4 ar
     8     4    30 1
     9     6     5 ar
    10     5    10 1
    11     6    31 1
    12    28     7 1
    13     8     7 1
    14     8     9 1
    15    10    11 1
    16    10    32 1
    17    12    11 1
    18    11    13 2
    19    18    12 ar
    20    12    14 ar
    21    14    15 ar
    22    14    20 1
    23    16    15 ar
    24    15    21 1
    25    17    16 ar
    26    16    33 1
    27    18    17 ar
    28    17    34 1
    29    19    18 1
    30    21    22 1
    31    21    35 1
    32    26    22 2
    33    23    22 1
    34    22    27 2
    35    23    24 1
    36    23    36 1
    37    23    37 1
    38    24    25 1
    39    24    38 1
    40    24    39 1
    41    25    40 1
    42    25    41 1
    43    25    42 1
    44    28    29 1
    45    29    43 1
    46    29    44 1
    47    29    45 1
    48     8    46 1
@<TRIPOS>SUBSTRUCTURE
     1 B0R         1 TEMP              0 ****  ****    0 ROOT
