@<TRIPOS>MOLECULE
B0T
   65    67     1     0     0
SMALL
bcc


@<TRIPOS>ATOM
      1 C1           0.0000     0.0000     0.0000 ca         1 B0T      -0.131000
      2 C2           1.3840     0.0000     0.0000 ca         1 B0T      -0.110000
      3 C3          -0.6940     0.0060     1.1910 ca         1 B0T      -0.098000
      4 C4           2.0810     0.0000     1.1960 ca         1 B0T      -0.122000
      5 C5           3.6740    -3.5750     6.2790 ca         1 B0T      -0.137000
      6 C6           3.5560    -4.8430     6.8240 ca         1 B0T      -0.151000
      7 C7           0.0030     0.0060     2.4010 ca         1 B0T      -0.098600
      8 C8           1.3350    -3.1860     6.6730 ca         1 B0T      -0.044600
      9 C9           1.3990     0.0000     2.3950 ca         1 B0T      -0.009300
     10 C10          2.5770    -2.7460     6.2040 ca         1 B0T      -0.093300
     11 C11          2.3340    -5.2920     7.3000 ca         1 B0T       0.060100
     12 C12          1.2170    -4.4670     7.2290 ca         1 B0T       0.079100
     13 C13         -0.7340     0.0140     3.6830 c          1 B0T       0.569700
     14 C15          1.8210   -10.6280     9.1330 c          1 B0T       0.983600
     15 C17         -4.2020    -0.5790     4.7470 c3         1 B0T      -0.029400
     16 C18         -2.8120     0.0250     4.9550 c3         1 B0T      -0.004300
     17 C19         -2.9510     1.4650     5.4550 c3         1 B0T      -0.019100
     18 C20          0.0110    -6.0190     8.5630 c3         1 B0T       0.160400
     19 C21          0.9300    -7.0930     7.9630 c3         1 B0T       0.125100
     20 C22          2.1590     0.0010     3.6960 c3         1 B0T       0.173100
     21 C23          2.7150    -1.3650     5.6170 c3         1 B0T       0.207100
     22 C24          2.9770    -2.2560     3.3810 c3         1 B0T       0.149100
     23 C26          0.9680    -8.3130     8.8850 c3         1 B0T      -0.014400
     24 N1          -2.0810     0.0190     3.6840 ns         1 B0T      -0.197900
     25 N2           2.1940    -1.3620     4.2440 n3         1 B0T      -0.469600
     26 O1          -0.0620    -1.3870     7.5580 o          1 B0T      -0.892300
     27 O2           1.2540   -10.5970    10.1990 o          1 B0T      -0.915800
     28 O3          -0.1250     0.0140     4.7340 o          1 B0T      -0.537100
     29 O4          -0.6130    -2.3990     5.6610 o          1 B0T      -0.892300
     30 O5           2.4830   -11.7330     8.7570 o          1 B0T      -0.915800
     31 O6           0.0100    -4.8890     7.6840 os         1 B0T      -0.273900
     32 O7           2.2440    -6.5400     7.8370 os         1 B0T      -0.296900
     33 H1          -0.5400    -0.0000    -0.9390 ha         1 B0T       0.088000
     34 H2           1.9240    -0.0020    -0.9390 ha         1 B0T       0.086000
     35 H3          -1.7770     0.0080     1.1890 ha         1 B0T       0.100000
     36 H4           3.1640    -0.0020     1.1900 ha         1 B0T       0.101000
     37 H5           4.6350    -3.2320     5.9150 ha         1 B0T       0.083000
     38 H6           4.4250    -5.4880     6.8790 ha         1 B0T       0.098000
     39 H7          -5.0420    -2.5230     4.3790 hc         1 B0T       0.010700
     40 H8          -3.4170    -2.5530     5.0780 hc         1 B0T       0.010700
     41 H9          -3.6390    -2.1340     3.3740 hc         1 B0T       0.010700
     42 H10         -4.7730    -0.4940     5.6630 hc         1 B0T      -0.002300
     43 H11         -4.7120    -0.0480     3.9530 hc         1 B0T      -0.002300
     44 H12         -2.2700    -0.5610     5.6860 h1         1 B0T       0.140700
     45 H13         -2.4580     2.1370     4.7640 hc         1 B0T      -0.000300
     46 H14         -4.0010     1.7240     5.5240 hc         1 B0T      -0.000300
     47 H15         -2.4930     1.5530     6.4330 hc         1 B0T      -0.000300
     48 H16          0.3840    -5.7230     9.5360 h1         1 B0T       0.016700
     49 H17         -0.9950    -6.4110     8.6550 h1         1 B0T       0.016700
     50 H18          0.5620    -7.3800     6.9860 h1         1 B0T       0.021700
     51 H19          1.6680     0.6610     4.4010 h1         1 B0T       0.024700
     52 H20          3.1710     0.3460     3.5230 h1         1 B0T       0.024700
     53 H21          2.1530    -0.6600     6.2180 h1         1 B0T       0.018700
     54 H22          3.7600    -1.0800     5.6080 h1         1 B0T       0.018700
     55 H23          3.9960    -1.8960     3.3170 h1         1 B0T      -0.001967
     56 H24          2.9730    -3.2560     3.7990 h1         1 B0T      -0.001967
     57 H25          2.5390    -2.2770     2.3900 h1         1 B0T      -0.001967
     58 H26          1.3210    -9.7000     7.2830 hc         1 B0T       0.012200
     59 H27          2.7920    -9.0780     8.0440 hc         1 B0T       0.012200
     60 H28          1.4290    -8.0390     9.8270 hc         1 B0T       0.027200
     61 H29         -0.0410    -8.6610     9.0650 hc         1 B0T       0.027200
     62 H30         -2.5830     0.0520     2.8190 hn         1 B0T       0.152500
     63 C25          1.7820    -9.4260     8.2240 c3         1 B0T      -0.135400
     64 C16         -4.0650    -2.0550     4.3670 c3         1 B0T      -0.010100
     65 C14          0.1590    -2.3020     6.5940 c          1 B0T       1.002200
@<TRIPOS>BOND
     1     1     2 ar  
     2     1     3 ar  
     3     1    33 1   
     4     2     4 ar  
     5     2    34 1   
     6     3     7 ar  
     7     3    35 1   
     8     4     9 ar  
     9     4    36 1   
    10     5     6 ar  
    11     5    10 ar  
    12     5    37 1   
    13     6    11 ar  
    14     6    38 1   
    15     7     9 ar  
    16     7    13 1   
    17     8    10 ar  
    18     8    12 ar  
    19     8    65 1   
    20     9    20 1   
    21    10    21 1   
    22    11    12 ar  
    23    11    32 1   
    24    12    31 1   
    25    13    24 1   
    26    13    28 2   
    27    14    27 1   
    28    14    30 1   
    29    14    63 1   
    30    15    16 1   
    31    15    42 1   
    32    15    43 1   
    33    15    64 1   
    34    16    17 1   
    35    16    24 1   
    36    16    44 1   
    37    17    45 1   
    38    17    46 1   
    39    17    47 1   
    40    18    19 1   
    41    18    31 1   
    42    18    48 1   
    43    18    49 1   
    44    19    23 1   
    45    19    32 1   
    46    19    50 1   
    47    20    25 1   
    48    20    51 1   
    49    20    52 1   
    50    21    25 1   
    51    21    53 1   
    52    21    54 1   
    53    22    25 1   
    54    22    55 1   
    55    22    56 1   
    56    22    57 1   
    57    23    60 1   
    58    23    61 1   
    59    23    63 1   
    60    24    62 1   
    61    26    65 1   
    62    29    65 1   
    63    39    64 1   
    64    40    64 1   
    65    41    64 1   
    66    58    63 1   
    67    59    63 1   
@<TRIPOS>SUBSTRUCTURE
     1 B0T         1 TEMP              0 ****  ****    0 ROOT
