@<TRIPOS>MOLECULE
molecule
   32    32     1     0     0
SMALL
bcc


@<TRIPOS>ATOM
      1 N1           0.0000     0.0000     0.0000 ns         1 B0V      -0.496100
      2 C4           2.0940     0.0000     1.2020 ca         1 B0V      -0.064800
      3 C5           1.3990     0.0000     0.0000 ca         1 B0V       0.038600
      4 C6           2.0950     0.0000    -1.2020 ca         1 B0V      -0.064800
      5 C7           3.4770    -0.0010    -1.1980 ca         1 B0V      -0.129500
      6 C8           1.3450     0.0010    -2.5090 c3         1 B0V      -0.045800
      7 C10         -2.1770     1.1330    -0.3100 c3         1 B0V       0.064400
      8 C2           4.1660    -0.0010     0.0010 ca         1 B0V      -0.072300
      9 C3           3.4750     0.0050     1.1990 ca         1 B0V      -0.129500
     10 C9          -0.6740     1.0950    -0.4060 c          1 B0V       0.654100
     11 O1          -0.0700     2.0490    -0.8490 o          1 B0V      -0.557100
     12 O2          -2.6540     2.3890    -0.7980 os         1 B0V      -0.392600
     13 C11         -4.0750     2.5290    -0.7500 c3         1 B0V       0.126700
     14 C12          1.3430     0.0010     2.5090 c3         1 B0V      -0.045800
     15 H1          -0.5000    -0.8240     0.2700 hn         1 B0V       0.317500
     16 H2           4.0200    -0.0000    -2.1350 ha         1 B0V       0.133000
     17 H3           0.4030    -0.5210    -2.3850 hc         1 B0V       0.045200
     18 H4           1.1540     1.0220    -2.8150 hc         1 B0V       0.045200
     19 H5           1.9370    -0.4990    -3.2650 hc         1 B0V       0.045200
     20 H6          -2.5970     0.3310    -0.9060 h1         1 B0V       0.039200
     21 H7          -2.4760     1.0100     0.7240 h1         1 B0V       0.039200
     22 H8           6.0340     0.6040     0.8250 hc         1 B0V       0.043700
     23 H9           6.0350     0.4100    -0.9330 hc         1 B0V       0.043700
     24 H10          6.0340    -1.0160     0.1140 hc         1 B0V       0.043700
     25 H11          4.0180     0.0050     2.1360 ha         1 B0V       0.133000
     26 H12         -4.5350     1.7540    -1.3510 h1         1 B0V       0.032367
     27 H13         -4.3550     3.5010    -1.1390 h1         1 B0V       0.032367
     28 H14         -4.4130     2.4390     0.2750 h1         1 B0V       0.032367
     29 H15          0.7020    -0.8710     2.5570 hc         1 B0V       0.045200
     30 H16          0.7390     0.8980     2.5770 hc         1 B0V       0.045200
     31 H17          2.0480    -0.0230     3.3300 hc         1 B0V       0.045200
     32 C1           5.6730    -0.0010     0.0020 c3         1 B0V      -0.047800
@<TRIPOS>BOND
     1    32     8 1
     2     5     8 ar
     3     5     4 ar
     4     6     4 1
     5     8     9 ar
     6     4     3 ar
     7     9     2 ar
     8     3     2 ar
     9     3     1 1
    10    11    10 2
    11     2    14 1
    12    10     1 1
    13    10     7 1
    14     7    12 1
    15    12    13 1
    16     1    15 1
    17     5    16 1
    18     6    17 1
    19     6    18 1
    20     6    19 1
    21     7    20 1
    22     7    21 1
    23    32    22 1
    24    32    23 1
    25    32    24 1
    26     9    25 1
    27    13    26 1
    28    13    27 1
    29    13    28 1
    30    14    29 1
    31    14    30 1
    32    14    31 1
@<TRIPOS>SUBSTRUCTURE
     1 B0V         1 TEMP              0 ****  ****    0 ROOT
