@<TRIPOS>MOLECULE
B0V
   32    32     1     0     0
SMALL
bcc


@<TRIPOS>ATOM
      1 N1           0.0000     0.0000     0.0000 ns         1 B0V      -0.062100
      2 C4           2.0940     0.0000     1.2020 ca         1 B0V      -0.062300
      3 C5           1.3990     0.0000     0.0000 ca         1 B0V      -0.102400
      4 C6           2.0950     0.0000    -1.2020 ca         1 B0V      -0.062300
      5 C7           3.4770    -0.0010    -1.1980 ca         1 B0V      -0.106500
      6 C8           1.3450     0.0010    -2.5090 c3         1 B0V       0.057200
      7 C10         -2.1770     1.1330    -0.3100 c3         1 B0V       0.143400
      8 C2           4.1660    -0.0010     0.0010 ca         1 B0V      -0.072300
      9 C3           3.4750     0.0050     1.1990 ca         1 B0V      -0.106500
     10 C9          -0.6740     1.0950    -0.4060 c          1 B0V       0.548100
     11 O1          -0.0700     2.0490    -0.8490 o          1 B0V      -0.603100
     12 O2          -2.6540     2.3890    -0.7980 os         1 B0V      -0.376600
     13 C11         -4.0750     2.5290    -0.7500 c3         1 B0V       0.248700
     14 C12          1.3430     0.0010     2.5090 c3         1 B0V       0.057200
     15 H1          -0.5000    -0.8240     0.2700 hn         1 B0V       0.163500
     16 H2           4.0200    -0.0000    -2.1350 ha         1 B0V       0.110500
     17 H3           0.4030    -0.5210    -2.3850 hc         1 B0V       0.011033
     18 H4           1.1540     1.0220    -2.8150 hc         1 B0V       0.011033
     19 H5           1.9370    -0.4990    -3.2650 hc         1 B0V       0.011033
     20 H6          -2.5970     0.3310    -0.9060 h1         1 B0V       0.000200
     21 H7          -2.4760     1.0100     0.7240 h1         1 B0V       0.000200
     22 H8           6.0340     0.6040     0.8250 hc         1 B0V       0.007700
     23 H9           6.0350     0.4100    -0.9330 hc         1 B0V       0.007700
     24 H10          6.0340    -1.0160     0.1140 hc         1 B0V       0.007700
     25 H11          4.0180     0.0050     2.1360 ha         1 B0V       0.110500
     26 H12         -4.5350     1.7540    -1.3510 h1         1 B0V      -0.012633
     27 H13         -4.3550     3.5010    -1.1390 h1         1 B0V      -0.012633
     28 H14         -4.4130     2.4390     0.2750 h1         1 B0V      -0.012633
     29 H15          0.7020    -0.8710     2.5570 hc         1 B0V       0.011033
     30 H16          0.7390     0.8980     2.5770 hc         1 B0V       0.011033
     31 H17          2.0480    -0.0230     3.3300 hc         1 B0V       0.011033
     32 C1           5.6730    -0.0010     0.0020 c3         1 B0V       0.063200
@<TRIPOS>BOND
     1     1     3 1   
     2     1    10 1   
     3     1    15 1   
     4     2     3 ar  
     5     2     9 ar  
     6     2    14 1   
     7     3     4 ar  
     8     4     5 ar  
     9     4     6 1   
    10     5     8 ar  
    11     5    16 1   
    12     6    17 1   
    13     6    18 1   
    14     6    19 1   
    15     7    10 1   
    16     7    12 1   
    17     7    20 1   
    18     7    21 1   
    19     8     9 ar  
    20     8    32 1   
    21     9    25 1   
    22    10    11 2   
    23    12    13 1   
    24    13    26 1   
    25    13    27 1   
    26    13    28 1   
    27    14    29 1   
    28    14    30 1   
    29    14    31 1   
    30    22    32 1   
    31    23    32 1   
    32    24    32 1   
@<TRIPOS>SUBSTRUCTURE
     1 B0V         1 TEMP              0 ****  ****    0 ROOT
