@<TRIPOS>MOLECULE
molecule
   41    43     1     0     0
SMALL
bcc


@<TRIPOS>ATOM
      1 C11          0.0000     0.0000     0.0000 ca         1 B0W      -0.127000
      2 C10          1.3760     0.0000     0.0000 ca         1 B0W      -0.107000
      3 C9           2.0750     0.0000     1.2110 ca         1 B0W      -0.078600
      4 C12          3.5500    -0.0000     1.2100 c          1 B0W       0.877200
      5 O13          4.1590    -0.0020     0.1590 o          1 B0W      -0.831300
      6 O14          4.2240    -0.0000     2.3780 o          1 B0W      -0.831300
      7 C8           1.3750     0.0010     2.4200 ca         1 B0W      -0.107000
      8 C7          -0.0010     0.0020     2.4190 ca         1 B0W      -0.127000
      9 C6          -0.6980     0.0070     1.2100 ca         1 B0W      -0.171500
     10 C4          -2.1770     0.0090     1.2100 cc         1 B0W       0.469000
     11 N5          -2.9910     0.0140     0.1090 na         1 B0W      -0.423700
     12 N3          -2.9590     0.0000     2.2660 nc         1 B0W      -0.371000
     13 N2          -4.1890     0.0050     1.8900 nc         1 B0W      -0.350000
     14 C1          -4.2590     0.0130     0.5860 cd         1 B0W       0.341800
     15 C1'         -5.5200     0.0210    -0.2390 c3         1 B0W       0.142800
     16 O5'         -6.2290     1.2410    -0.0160 os         1 B0W      -0.379600
     17 C5'         -7.4350     1.3630    -0.7720 c3         1 B0W       0.146100
     18 C6'         -8.0890     2.7140    -0.4760 c3         1 B0W       0.152400
     19 O6'         -7.2420     3.7660    -0.9400 oh         1 B0W      -0.596800
     20 C4'         -8.3940     0.2350    -0.3870 c3         1 B0W       0.102100
     21 O4'         -9.5770     0.3210    -1.1840 oh         1 B0W      -0.607800
     22 C3'         -7.7080    -1.1130    -0.6320 c3         1 B0W       0.105100
     23 O3'         -8.5690    -2.1720    -0.2070 oh         1 B0W      -0.607800
     24 C2'         -6.4030    -1.1620     0.1680 c3         1 B0W       0.113100
     25 O2'         -5.7190    -2.3860    -0.1090 oh         1 B0W      -0.599800
     26 H1          -0.5420     0.0020    -0.9380 ha         1 B0W       0.116000
     27 H2           1.9180    -0.0060    -0.9380 ha         1 B0W       0.156500
     28 H4           1.9160    -0.0010     3.3590 ha         1 B0W       0.156500
     29 H5          -0.5430     0.0050     3.3570 ha         1 B0W       0.116000
     30 H6          -2.7080     0.0190    -0.8510 hn         1 B0W       0.309700
     31 H7          -5.2700    -0.0620    -1.2900 h1         1 B0W       0.048700
     32 H8          -7.2040     1.2930    -1.8290 h1         1 B0W       0.058700
     33 H9          -9.0460     2.7710    -0.9810 h1         1 B0W       0.034200
     34 H10         -8.2390     2.8160     0.5930 h1         1 B0W       0.034200
     35 H11         -7.6940     4.5910    -0.8640 ho         1 B0W       0.400000
     36 H12         -8.6500     0.3230     0.6620 h1         1 B0W       0.060700
     37 H13        -10.3330     0.1680    -0.6410 ho         1 B0W       0.410000
     38 H14         -7.4890    -1.2200    -1.6880 h1         1 B0W       0.055700
     39 H15         -8.7610    -2.7340    -0.9380 ho         1 B0W       0.410000
     40 H16         -6.6260    -1.0970     1.2260 h1         1 B0W       0.079700
     41 H17         -5.8670    -2.9950     0.5950 ho         1 B0W       0.418000
@<TRIPOS>BOND
     1    23    22 1
     2    21    20 1
     3    22    20 1
     4    22    24 1
     5    20    17 1
     6    25    24 1
     7    24    15 1
     8    19    18 1
     9    17    18 1
    10    17    16 1
    11    15    16 1
    12    15    14 1
    13    13    14 2
    14    13    12 1
    15    14    11 1
    16    12    10 2
    17    11    10 1
    18    10     9 1
    19     9     8 ar
    20     9     1 ar
    21     8     7 ar
    22     1     2 ar
    23     7     3 ar
    24     2     3 ar
    25     3     4 1
    26     4     5 1
    27     4     6 1
    28     1    26 1
    29     2    27 1
    30     7    28 1
    31     8    29 1
    32    11    30 1
    33    15    31 1
    34    17    32 1
    35    18    33 1
    36    18    34 1
    37    19    35 1
    38    20    36 1
    39    21    37 1
    40    22    38 1
    41    23    39 1
    42    24    40 1
    43    25    41 1
@<TRIPOS>SUBSTRUCTURE
     1 B0W         1 TEMP              0 ****  ****    0 ROOT
