@<TRIPOS>MOLECULE
molecule
   32    33     1     0     0
SMALL
bcc


@<TRIPOS>ATOM
      1 N1           0.0000     0.0000     0.0000 ns         1 B0Y      -0.582900
      2 N3          -4.2590    -0.6540     0.6120 na         1 B0Y       0.065400
      3 C4           3.8630     0.0000    -2.7080 cc         1 B0Y      -0.177000
      4 C5           3.4410     0.0000    -1.3990 cc         1 B0Y      -0.074000
      5 C6           2.0800    -0.0000    -1.2690 cd         1 B0Y      -0.123700
      6 C7           1.3480     0.0000     0.0000 c          1 B0Y       0.703700
      7 C8          -0.7330     0.0000     1.2680 c3         1 B0Y       0.200300
      8 C10         -3.0180     1.1420     0.8400 cc         1 B0Y       0.346200
      9 C1           3.1820    -1.4330    -5.6160 c3         1 B0Y      -0.090100
     10 C3           2.8820     0.0060    -3.6200 cd         1 B0Y      -0.036400
     11 S1           1.3500     0.0000    -2.8690 ss         1 B0Y      -0.103800
     12 O1           1.9570     0.0010     1.0540 o          1 B0Y      -0.606100
     13 C9          -2.2140     0.0070     0.9940 cc         1 B0Y      -0.345600
     14 N2          -4.2450     0.7460     0.6170 nd         1 B0Y      -0.510800
     15 C11         -3.0010    -1.0840     0.8460 cd         1 B0Y      -0.093300
     16 H1          -0.5000     0.0240    -0.8670 hn         1 B0Y       0.316500
     17 H2           4.9110     0.0000    -2.9820 ha         1 B0Y       0.152000
     18 H3           4.1200    -0.0040    -0.5550 ha         1 B0Y       0.171000
     19 H4          -0.4670     0.8820     1.8380 h1         1 B0Y       0.057200
     20 H5          -0.4740    -0.8870     1.8340 h1         1 B0Y       0.057200
     21 H6          -2.6840     2.1700     0.9020 h4         1 B0Y       0.053100
     22 H7           4.1140    -1.8800    -5.2910 hc         1 B0Y       0.039367
     23 H8           2.3500    -1.9910    -5.2040 hc         1 B0Y       0.039367
     24 H9           3.1300    -1.4550    -6.6980 hc         1 B0Y       0.039367
     25 H10          4.0310     0.5220    -5.3360 hc         1 B0Y       0.054700
     26 H11          2.2810     0.5180    -5.5960 hc         1 B0Y       0.054700
     27 H12         -2.6790    -2.1170     0.9040 h4         1 B0Y       0.174000
     28 H13         -5.2850    -2.1090    -0.4880 h1         1 B0Y       0.056367
     29 H14         -5.5740    -2.1490     1.2570 h1         1 B0Y       0.056367
     30 H15         -6.3110    -0.8810     0.2680 h1         1 B0Y       0.056367
     31 C12         -5.4340    -1.5040     0.3980 c3         1 B0Y       0.062600
     32 C2           3.1040     0.0090    -5.1100 c3         1 B0Y      -0.010100
@<TRIPOS>BOND
     1    32     9 1
     2    32    10 1
     3    10    11 1
     4    10     3 2
     5    11     5 1
     6     3     4 1
     7     4     5 2
     8     5     6 1
     9     6    12 2
    10     6     1 1
    11     1     7 1
    12     7    13 1
    13    13    15 2
    14    13     8 1
    15    15     2 1
    16     8    14 2
    17     2    14 1
    18     2    31 1
    19     1    16 1
    20     3    17 1
    21     4    18 1
    22     7    19 1
    23     7    20 1
    24     8    21 1
    25     9    22 1
    26     9    23 1
    27     9    24 1
    28    32    25 1
    29    32    26 1
    30    15    27 1
    31    31    28 1
    32    31    29 1
    33    31    30 1
@<TRIPOS>SUBSTRUCTURE
     1 B0Y         1 TEMP              0 ****  ****    0 ROOT
