@<TRIPOS>MOLECULE
B0Y
   32    33     1     0     0
SMALL
bcc


@<TRIPOS>ATOM
      1 N1           0.0000     0.0000     0.0000 ns         1 B0Y      -0.195900
      2 N3          -4.2590    -0.6540     0.6120 na         1 B0Y       0.490400
      3 C4           3.8630     0.0000    -2.7080 cc         1 B0Y      -0.150000
      4 C5           3.4410     0.0000    -1.3990 cc         1 B0Y      -0.036000
      5 C6           2.0800    -0.0000    -1.2690 cd         1 B0Y      -0.084700
      6 C7           1.3480     0.0000     0.0000 c          1 B0Y       0.630700
      7 C8          -0.7330     0.0000     1.2680 c3         1 B0Y       0.161300
      8 C10         -3.0180     1.1420     0.8400 cc         1 B0Y       0.411200
      9 C1           3.1820    -1.4330    -5.6160 c3         1 B0Y       0.003900
     10 C3           2.8820     0.0060    -3.6200 cd         1 B0Y       0.010600
     11 S1           1.3500     0.0000    -2.8690 ss         1 B0Y      -0.230800
     12 O1           1.9570     0.0010     1.0540 o          1 B0Y      -0.650100
     13 C9          -2.2140     0.0070     0.9940 cc         1 B0Y      -0.361600
     14 N2          -4.2450     0.7460     0.6170 nd         1 B0Y      -0.648800
     15 C11         -3.0010    -1.0840     0.8460 cd         1 B0Y      -0.228300
     16 H1          -0.5000     0.0240    -0.8670 hn         1 B0Y       0.183500
     17 H2           4.9110     0.0000    -2.9820 ha         1 B0Y       0.126000
     18 H3           4.1200    -0.0040    -0.5550 ha         1 B0Y       0.139000
     19 H4          -0.4670     0.8820     1.8380 h1         1 B0Y       0.025200
     20 H5          -0.4740    -0.8870     1.8340 h1         1 B0Y       0.025200
     21 H6          -2.6840     2.1700     0.9020 h4         1 B0Y       0.008100
     22 H7           4.1140    -1.8800    -5.2910 hc         1 B0Y       0.006367
     23 H8           2.3500    -1.9910    -5.2040 hc         1 B0Y       0.006367
     24 H9           3.1300    -1.4550    -6.6980 hc         1 B0Y       0.006367
     25 H10          4.0310     0.5220    -5.3360 hc         1 B0Y       0.021700
     26 H11          2.2810     0.5180    -5.5960 hc         1 B0Y       0.021700
     27 H12         -2.6790    -2.1170     0.9040 h4         1 B0Y       0.148000
     28 H13         -5.2850    -2.1090    -0.4880 h1         1 B0Y       0.022367
     29 H14         -5.5740    -2.1490     1.2570 h1         1 B0Y       0.022367
     30 H15         -6.3110    -0.8810     0.2680 h1         1 B0Y       0.022367
     31 C12         -5.4340    -1.5040     0.3980 c3         1 B0Y       0.023600
     32 C2           3.1040     0.0090    -5.1100 c3         1 B0Y       0.066900
@<TRIPOS>BOND
     1     1     6 1   
     2     1     7 1   
     3     1    16 1   
     4     2    14 1   
     5     2    15 1   
     6     2    31 1   
     7     3     4 1   
     8     3    10 2   
     9     3    17 1   
    10     4     5 2   
    11     4    18 1   
    12     5     6 1   
    13     5    11 1   
    14     6    12 2   
    15     7    13 1   
    16     7    19 1   
    17     7    20 1   
    18     8    13 1   
    19     8    14 2   
    20     8    21 1   
    21     9    22 1   
    22     9    23 1   
    23     9    24 1   
    24     9    32 1   
    25    10    11 1   
    26    10    32 1   
    27    13    15 2   
    28    15    27 1   
    29    25    32 1   
    30    26    32 1   
    31    28    31 1   
    32    29    31 1   
    33    30    31 1   
@<TRIPOS>SUBSTRUCTURE
     1 B0Y         1 TEMP              0 ****  ****    0 ROOT
