@<TRIPOS>MOLECULE
molecule
   42    44     1     0     0
SMALL
bcc


@<TRIPOS>ATOM
      1 C1           0.0000     0.0000     0.0000 cc         1 B0Z       0.385800
      2 C4           1.7330     0.0000     1.3170 cc         1 B0Z       0.411000
      3 C6           3.1170    -0.0010     1.8410 ca         1 B0Z      -0.083500
      4 C11          4.1990     0.0030     0.9590 ca         1 B0Z      -0.112000
      5 F13          7.5520    -1.3240     3.5180 f          1 B0Z      -0.221967
      6 F14          7.1420     0.6540     4.5870 f          1 B0Z      -0.221967
      7 F15          7.9600     0.6560     2.4540 f          1 B0Z      -0.221967
      8 C9           5.7070    -0.0030     2.8200 ca         1 B0Z      -0.174300
      9 C8           4.6380    -0.0020     3.6980 ca         1 B0Z      -0.079500
     10 C7           3.3450    -0.0010     3.2160 ca         1 B0Z      -0.112000
     11 C10          5.4880     0.0020     1.4540 ca         1 B0Z      -0.079500
     12 N5           1.3600     0.0000     0.0000 na         1 B0Z      -0.418700
     13 N3           0.6280     0.0000     2.0280 nd         1 B0Z      -0.339000
     14 N2          -0.3920     0.0010     1.2460 nd         1 B0Z      -0.336000
     15 C1'         -0.8920     0.0060    -1.2150 c3         1 B0Z       0.135800
     16 C2'         -1.8630    -1.1750    -1.1420 c3         1 B0Z       0.111100
     17 O2'         -1.1270    -2.4000    -1.1560 oh         1 B0Z      -0.605800
     18 O5'         -1.6330     1.2280    -1.2570 os         1 B0Z      -0.382600
     19 C5'         -2.4950     1.3480    -2.3900 c3         1 B0Z       0.145100
     20 C6'         -3.2110     2.7000    -2.3450 c3         1 B0Z       0.152400
     21 O6'         -2.2530     3.7510    -2.4850 oh         1 B0Z      -0.601800
     22 C4'         -3.5310     0.2210    -2.3640 c3         1 B0Z       0.103100
     23 O4'         -4.3590     0.3060    -3.5240 oh         1 B0Z      -0.602800
     24 C3'         -2.8050    -1.1280    -2.3480 c3         1 B0Z       0.108100
     25 O3'         -3.7620    -2.1840    -2.2500 oh         1 B0Z      -0.602800
     26 H1           4.0270     0.0070    -0.1100 ha         1 B0Z       0.149000
     27 H2           4.8160    -0.0020     4.7670 ha         1 B0Z       0.152000
     28 H3           2.5090    -0.0000     3.9050 ha         1 B0Z       0.149000
     29 H4           6.3290     0.0050     0.7710 ha         1 B0Z       0.152000
     30 H5           1.9640    -0.0010    -0.7980 hn         1 B0Z       0.312700
     31 H6          -0.2900    -0.0800    -2.1110 h1         1 B0Z       0.052700
     32 H7          -2.4440    -1.1080    -0.2290 h1         1 B0Z       0.080700
     33 H8          -1.5120    -3.0060    -0.5450 ho         1 B0Z       0.422000
     34 H9          -1.9080     1.2760    -3.2980 h1         1 B0Z       0.061700
     35 H10         -3.7260     2.8040    -1.3970 h1         1 B0Z       0.040200
     36 H11         -3.9290     2.7550    -3.1540 h1         1 B0Z       0.040200
     37 H12         -2.7020     4.5730    -2.5920 ho         1 B0Z       0.405000
     38 H13         -4.1390     0.3120    -1.4720 h1         1 B0Z       0.062700
     39 H14         -5.2570     0.1550    -3.2810 ho         1 B0Z       0.416000
     40 H15         -2.2290    -1.2380    -3.2590 h1         1 B0Z       0.057700
     41 H16         -3.6910    -2.7440    -3.0050 ho         1 B0Z       0.415000
     42 C12          7.1160    -0.0040     3.3520 c3         1 B0Z       0.673200
@<TRIPOS>BOND
     1    25    24 1
     2    23    22 1
     3    24    22 1
     4    24    16 1
     5    22    19 1
     6    17    16 1
     7    16    15 1
     8    21    20 1
     9    19    20 1
    10    19    18 1
    11    15    18 1
    12    15     1 1
    13    14     1 2
    14    14    13 1
    15     1    12 1
    16    13     2 2
    17    12     2 1
    18     2     3 1
    19     3    10 ar
    20     3     4 ar
    21    10     9 ar
    22     4    11 ar
    23     9     8 ar
    24    11     8 ar
    25     8    42 1
    26     6    42 1
    27    42     5 1
    28    42     7 1
    29     4    26 1
    30     9    27 1
    31    10    28 1
    32    11    29 1
    33    12    30 1
    34    15    31 1
    35    16    32 1
    36    17    33 1
    37    19    34 1
    38    20    35 1
    39    20    36 1
    40    21    37 1
    41    22    38 1
    42    23    39 1
    43    24    40 1
    44    25    41 1
@<TRIPOS>SUBSTRUCTURE
     1 B0Z         1 TEMP              0 ****  ****    0 ROOT
