@<TRIPOS>MOLECULE
molecule
   83    87     1     0     0
SMALL
bcc


@<TRIPOS>ATOM
      1 N1           0.0000     0.0000     0.0000 ns         1 B10      -0.479100
      2 C2           1.4020     0.0000     0.0000 ca         1 B10       0.078600
      3 C10          2.0970     0.0000     1.2020 ca         1 B10      -0.152000
      4 C12          3.4790    -0.0010     1.2030 ca         1 B10      -0.028300
      5 C55          2.0990    -0.0080    -1.2040 ca         1 B10       0.030100
      6 C18          3.4890    -0.0070    -1.1980 ca         1 B10       0.146600
      7 C19          4.1760    -0.0020     0.0090 ca         1 B10      -0.196000
      8 O3           1.4210    -0.0130    -2.3840 os         1 B10      -0.355900
      9 C13          1.0980     1.2570    -2.9540 c3         1 B10       0.125700
     10 C14          4.2290     0.0010     2.5110 c3         1 B10      -0.021700
     11 C15          3.2320     0.0030     3.6700 c3         1 B10      -0.083433
     12 C16          5.1080    -1.2490     2.5950 c3         1 B10      -0.083433
     13 C17          5.1090     1.2500     2.5920 c3         1 B10      -0.083433
     14 C24         -0.6740     0.4740     1.0670 c          1 B10       0.782100
     15 O1          -0.0700     0.9950     1.9840 o          1 B10      -0.636100
     16 N4          -2.0160     0.3710     1.1160 ns         1 B10      -0.483100
     17 C25         -2.7060     0.7800     2.2570 ca         1 B10       0.070600
     18 C4          -3.8640     0.0870     2.6720 ca         1 B10      -0.050000
     19 C5          -4.5540     0.5130     3.8320 ca         1 B10      -0.010000
     20 C6          -4.0700     1.6280     4.5580 cp         1 B10      -0.049000
     21 C26         -4.3460    -1.0180     1.9520 ca         1 B10      -0.123000
     22 C27         -5.4660    -1.6640     2.3780 ca         1 B10      -0.122000
     23 C28         -6.1440    -1.2440     3.5200 ca         1 B10      -0.123000
     24 C29         -5.7040    -0.1760     4.2410 ca         1 B10      -0.120000
     25 C30         -2.9310     2.2840     4.1240 ca         1 B10      -0.094000
     26 C8          -2.2550     1.8590     2.9890 ca         1 B10      -0.130000
     27 C11         -4.7780     2.0890     5.7730 cp         1 B10      -0.159300
     28 C1          -4.0770     2.3140     6.9630 ca         1 B10      -0.083000
     29 C33         -4.7860     2.7450     8.0710 ca         1 B10      -0.229300
     30 C7          -6.1510     2.9360     7.9690 ca         1 B10       0.427600
     31 N3          -6.7870     2.7170     6.8340 nb         1 B10      -0.696000
     32 C9          -6.1550     2.3120     5.7510 ca         1 B10       0.422200
     33 N2           4.1960    -0.0140    -2.4060 nu         1 B10      -0.757500
     34 S1           5.6220    -0.8480    -2.5270 s6         1 B10       1.329900
     35 O6           5.9900    -0.7160    -3.8920 o          1 B10      -0.628300
     36 O7           6.4320    -0.3050    -1.4930 o          1 B10      -0.628300
     37 C23          5.1760    -2.5650    -2.1510 c3         1 B10      -0.240300
     38 C3          -6.9260     3.4050     9.1730 c3         1 B10       0.116500
     39 N5          -7.0680     4.8670     9.1260 n3         1 B10      -0.726600
     40 C31         -7.6070     5.3840    10.3930 c3         1 B10       0.122800
     41 C20         -7.9100     5.2790     7.9950 c3         1 B10       0.122800
     42 C21         -7.6810     6.9120    10.3230 c3         1 B10       0.139400
     43 C32         -7.9830     6.8080     7.9490 c3         1 B10       0.139400
     44 O2          -8.4790     7.2940     9.1990 os         1 B10      -0.426600
     45 HN1         -0.5000    -0.3980    -0.7700 hn         1 B10       0.330500
     46 H10          1.5550     0.0010     2.1400 ha         1 B10       0.190000
     47 H19          5.2590    -0.0020     0.0150 ha         1 B10       0.188000
     48 H13          1.5400     1.3330    -3.9410 h1         1 B10       0.038033
     49 H13A         0.0220     1.3550    -3.0330 h1         1 B10       0.038033
     50 H13B         1.4880     2.0460    -2.3230 h1         1 B10       0.038033
     51 H15          3.7700    -0.0360     4.6090 hc         1 B10       0.040033
     52 H15A         2.5830    -0.8610     3.5900 hc         1 B10       0.040033
     53 H15B         2.6360     0.9070     3.6320 hc         1 B10       0.040033
     54 H16          5.9660    -1.1310     1.9440 hc         1 B10       0.040033
     55 H16A         4.5360    -2.1150     2.2860 hc         1 B10       0.040033
     56 H16B         5.4450    -1.3840     3.6160 hc         1 B10       0.040033
     57 H17          5.9590     1.1370     1.9300 hc         1 B10       0.040033
     58 H17A         4.5320     2.1180     2.2950 hc         1 B10       0.040033
     59 H17B         5.4590     1.3790     3.6090 hc         1 B10       0.040033
     60 HN4         -2.5230     0.0560     0.3120 hn         1 B10       0.322500
     61 H26         -3.8280    -1.3550     1.0620 ha         1 B10       0.123000
     62 H27         -5.8350    -2.5170     1.8210 ha         1 B10       0.130000
     63 H28         -7.0330    -1.7750     3.8390 ha         1 B10       0.132000
     64 H29         -6.2410     0.1400     5.1280 ha         1 B10       0.146000
     65 H30         -2.5580     3.1340     4.6820 ha         1 B10       0.140000
     66 H8          -1.3660     2.3880     2.6670 ha         1 B10       0.172000
     67 H1          -3.0070     2.1560     7.0150 ha         1 B10       0.146000
     68 H33         -4.2760     2.9290     9.0090 ha         1 B10       0.144000
     69 H9          -6.7120     2.1420     4.8370 h4         1 B10       0.032100
     70 HN2          3.8640     0.5240    -3.1820 hn         1 B10       0.467800
     71 H23          4.4080    -2.8980    -2.8380 h1         1 B10       0.101700
     72 H23A         6.0500    -3.1960    -2.2530 h1         1 B10       0.101700
     73 H23B         4.8030    -2.6270    -1.1350 h1         1 B10       0.101700
     74 H3          -7.9080     2.9470     9.1710 h1         1 B10       0.049200
     75 H3A         -6.3970     3.1220    10.0750 h1         1 B10       0.049200
     76 H31         -6.9550     5.0920    11.2080 h1         1 B10       0.048200
     77 H31A        -8.5990     4.9810    10.5540 h1         1 B10       0.048200
     78 H20         -8.9070     4.8740     8.1210 h1         1 B10       0.048200
     79 H20A        -7.4790     4.9110     7.0710 h1         1 B10       0.048200
     80 H21         -6.6830     7.3170    10.2120 h1         1 B10       0.052700
     81 H21A        -8.1330     7.2930    11.2310 h1         1 B10       0.052700
     82 H32         -8.6500     7.1130     7.1520 h1         1 B10       0.052700
     83 H32A        -6.9920     7.2100     7.7730 h1         1 B10       0.052700
@<TRIPOS>BOND
     1     1     2 1
     2     1    14 1
     3     2     3 ar
     4     2     5 ar
     5     3     4 ar
     6     4     7 ar
     7     4    10 1
     8     5     6 ar
     9     5     8 1
    10     6     7 ar
    11     6    33 1
    12     8     9 1
    13    10    11 1
    14    10    12 1
    15    10    13 1
    16    14    15 2
    17    14    16 1
    18    16    17 1
    19    17    18 ar
    20    17    26 ar
    21    18    19 ar
    22    18    21 ar
    23    19    20 ar
    24    19    24 ar
    25    20    25 ar
    26    20    27 1
    27    21    22 ar
    28    22    23 ar
    29    23    24 ar
    30    25    26 ar
    31    27    28 ar
    32    27    32 ar
    33    28    29 ar
    34    29    30 ar
    35    30    31 ar
    36    30    38 1
    37    31    32 ar
    38    33    34 1
    39    34    35 2
    40    34    36 2
    41    34    37 1
    42    38    39 1
    43    39    40 1
    44    39    41 1
    45    40    42 1
    46    41    43 1
    47    42    44 1
    48    43    44 1
    49     1    45 1
    50     3    46 1
    51     7    47 1
    52     9    48 1
    53     9    49 1
    54     9    50 1
    55    11    51 1
    56    11    52 1
    57    11    53 1
    58    12    54 1
    59    12    55 1
    60    12    56 1
    61    13    57 1
    62    13    58 1
    63    13    59 1
    64    16    60 1
    65    21    61 1
    66    22    62 1
    67    23    63 1
    68    24    64 1
    69    25    65 1
    70    26    66 1
    71    28    67 1
    72    29    68 1
    73    32    69 1
    74    33    70 1
    75    37    71 1
    76    37    72 1
    77    37    73 1
    78    38    74 1
    79    38    75 1
    80    40    76 1
    81    40    77 1
    82    41    78 1
    83    41    79 1
    84    42    80 1
    85    42    81 1
    86    43    82 1
    87    43    83 1
@<TRIPOS>SUBSTRUCTURE
     1 B10         1 TEMP              0 ****  ****    0 ROOT
