@<TRIPOS>MOLECULE
molecule
   59    62     1     0     0
SMALL
bcc


@<TRIPOS>ATOM
      1 C1           0.0000     0.0000     0.0000 ca         1 B11      -0.187000
      2 C2           1.3810     0.0000     0.0000 ca         1 B11      -0.102000
      3 C3           2.0740     0.0000     1.1970 ca         1 B11      -0.148000
      4 C4           1.3860    -0.0020     2.3960 ca         1 B11      -0.089000
      5 C5           0.0040     0.0050     2.4020 ca         1 B11      -0.101300
      6 C6          -0.6930     0.0000     1.2010 ca         1 B11       0.118100
      7 O7          -2.0510     0.0000     1.2040 oh         1 B11      -0.518100
      8 C8          -0.7450     0.0050     3.7080 c3         1 B11       0.201100
      9 N9          -1.2040    -1.3580     4.0100 n7         1 B11      -0.793200
     10 C10         -1.9220    -1.2890     5.2890 c3         1 B11       0.157500
     11 C11         -2.9270    -2.4410     5.3720 c3         1 B11      -0.095400
     12 C12         -3.6980    -2.3450     6.6930 c3         1 B11       0.235800
     13 N13         -2.7340    -2.3030     7.8010 n3         1 B11      -0.822500
     14 C14         -1.6710    -1.2910     7.7750 c3         1 B11       0.235800
     15 C15         -0.9210    -1.3970     6.4420 c3         1 B11      -0.095400
     16 S16         -2.8470    -3.3760     9.0580 s6         1 B11       1.550800
     17 N17         -1.9430    -4.7040     8.6570 nu         1 B11      -0.781500
     18 O18         -2.1730    -2.7650    10.1480 o          1 B11      -0.645300
     19 O19         -4.1970    -3.8170     9.0680 o          1 B11      -0.645300
     20 C20         -0.5580    -4.5880     8.5110 ca         1 B11       0.168600
     21 C21          0.0790    -5.1840     7.4320 ca         1 B11      -0.173000
     22 C22          1.4520    -5.0630     7.2880 ca         1 B11       0.125100
     23 C23          2.1880    -4.3550     8.2290 ca         1 B11      -0.220000
     24 C24          1.5520    -3.7680     9.3070 ca         1 B11      -0.076000
     25 C25          0.1830    -3.8820     9.4510 ca         1 B11      -0.196000
     26 O26          2.0790    -5.6390     6.2290 os         1 B11      -0.214200
     27 C27          3.3820    -5.2570     6.2880 ca         1 B11       0.068100
     28 C28          4.3130    -6.0600     6.9310 ca         1 B11      -0.111500
     29 C29          5.6370    -5.6700     6.9890 ca         1 B11      -0.161000
     30 C30          6.0360    -4.4790     6.4070 ca         1 B11       0.132900
     31 C31          5.1080    -3.6760     5.7640 ca         1 B11      -0.161000
     32 C32          3.7840    -4.0660     5.6990 ca         1 B11      -0.111500
     33 F1           7.3310    -4.0990     6.4650 f          1 B11      -0.137900
     34 H1          -0.5420    -0.0020    -0.9380 ha         1 B11       0.135000
     35 H2           1.9220     0.0010    -0.9380 ha         1 B11       0.132000
     36 H3           3.1570    -0.0030     1.1950 ha         1 B11       0.132000
     37 H4           1.9310     0.0000     3.3320 ha         1 B11       0.136000
     38 HO7         -2.3670     0.6810     0.6330 ho         1 B11       0.422000
     39 H81         -1.6000     0.6650     3.6340 h1         1 B11       0.040700
     40 H82         -0.0900     0.3490     4.5000 h1         1 B11       0.040700
     41 HN9         -1.8290    -1.6660     3.2920 hn         1 B11       0.366800
     42 H10         -2.4500    -0.3460     5.3600 h1         1 B11       0.027700
     43 H111        -3.6210    -2.3730     4.5440 hc         1 B11       0.056450
     44 H112        -2.3970    -3.3850     5.3320 hc         1 B11       0.056450
     45 H121        -4.3380    -3.2120     6.8020 h1         1 B11       0.059200
     46 H122        -4.2960    -1.4420     6.6990 h1         1 B11       0.059200
     47 H141        -0.9820    -1.4670     8.5920 h1         1 B11       0.059200
     48 H142        -2.1080    -0.3040     7.8670 h1         1 B11       0.059200
     49 H151        -0.1990    -0.5930     6.3690 hc         1 B11       0.056450
     50 H152        -0.4130    -2.3530     6.3890 hc         1 B11       0.056450
     51 H17         -2.3820    -5.5980     8.5610 hn         1 B11       0.463800
     52 H21         -0.4970    -5.7350     6.6980 ha         1 B11       0.149000
     53 H23          3.2610    -4.2620     8.1180 ha         1 B11       0.150000
     54 H24          2.1280    -3.2160    10.0400 ha         1 B11       0.139000
     55 H25         -0.3130    -3.4210    10.2960 ha         1 B11       0.184000
     56 H28          4.0020    -6.9920     7.3870 ha         1 B11       0.154500
     57 H29          6.3640    -6.2970     7.4910 ha         1 B11       0.151000
     58 H31          5.4210    -2.7450     5.3070 ha         1 B11       0.151000
     59 H32          3.0590    -3.4380     5.1970 ha         1 B11       0.154500
@<TRIPOS>BOND
     1     1     2 ar
     2     1     6 ar
     3     1    34 1
     4     2     3 ar
     5     2    35 1
     6     3     4 ar
     7     3    36 1
     8     4     5 ar
     9     4    37 1
    10     5     6 ar
    11     5     8 1
    12     6     7 1
    13     7    38 1
    14     8     9 1
    15     8    39 1
    16     8    40 1
    17     9    10 1
    18     9    41 1
    19    10    11 1
    20    10    15 1
    21    10    42 1
    22    11    12 1
    23    11    43 1
    24    11    44 1
    25    12    13 1
    26    12    45 1
    27    12    46 1
    28    13    14 1
    29    13    16 1
    30    14    15 1
    31    14    47 1
    32    14    48 1
    33    15    49 1
    34    15    50 1
    35    16    17 1
    36    16    18 2
    37    16    19 2
    38    17    20 1
    39    17    51 1
    40    20    21 ar
    41    20    25 ar
    42    21    22 ar
    43    21    52 1
    44    22    23 ar
    45    22    26 1
    46    23    24 ar
    47    23    53 1
    48    24    25 ar
    49    24    54 1
    50    25    55 1
    51    26    27 1
    52    27    28 ar
    53    27    32 ar
    54    28    29 ar
    55    28    56 1
    56    29    30 ar
    57    29    57 1
    58    30    31 ar
    59    30    33 1
    60    31    32 ar
    61    31    58 1
    62    32    59 1
@<TRIPOS>SUBSTRUCTURE
     1 B11         1 TEMP              0 ****  ****    0 ROOT
