@<TRIPOS>MOLECULE
B14
   45    48     1     0     0
SMALL
bcc


@<TRIPOS>ATOM
      1 C1           0.0000     0.0000     0.0000 ca         1 B14       0.101900
      2 C2           1.3830     0.0000     0.0000 ca         1 B14      -0.024000
      3 C3           2.0900     0.0000     1.1900 ca         1 B14      -0.120000
      4 C4           1.4190    -0.0040     2.4000 ca         1 B14       0.098900
      5 C4A          0.0250    -0.0010     2.4100 ca         1 B14      -0.277900
      6 C5          -0.7390    -0.0200     3.6770 ce         1 B14       0.258800
      7 N6          -1.9830    -0.4290     3.6090 n2         1 B14      -0.400900
      8 C7          -2.5300    -0.8640     2.3220 c3         1 B14       0.179400
      9 N8          -2.0800     0.0070     1.2330 nu         1 B14      -0.399600
     10 C8A         -0.6920    -0.0010     1.2060 ca         1 B14       0.095600
     11 F9           2.1080    -0.0050     3.5610 f          1 B14      -0.130900
     12 F10         -0.6770     0.0000    -1.1680 f          1 B14      -0.096900
     13 C11         -2.0710    -2.3000     2.0430 c3         1 B14      -0.095400
     14 C12         -2.5160    -3.2040     3.1950 c3         1 B14       0.076000
     15 N13         -3.9680    -3.0650     3.3730 n          1 B14      -0.114800
     16 C14         -4.5310    -1.7190     3.5490 c3         1 B14       0.076000
     17 C15         -4.0610    -0.8320     2.3920 c3         1 B14      -0.095400
     18 C16         -4.7680    -4.1500     3.3740 c          1 B14       0.613700
     19 O17         -4.3090    -5.2440     3.1120 o          1 B14      -0.606100
     20 N18         -0.1730     0.3790     4.8690 nz         1 B14      -0.115600
     21 C19         -6.2050    -4.0080     3.6940 ca         1 B14      -0.233900
     22 C20         -7.1650    -4.7250     2.9730 ca         1 B14       0.459200
     23 N21         -8.4430    -4.6080     3.2570 nb         1 B14      -0.559000
     24 C22         -8.8740    -3.8040     4.2230 ca         1 B14       0.544300
     25 C23         -7.9770    -3.0530     4.9820 ca         1 B14      -0.202300
     26 C24         -6.6230    -3.1520     4.7190 ca         1 B14      -0.085000
     27 C25        -10.2780    -3.7080     4.4880 cg         1 B14       0.089800
     28 N26        -11.3880    -3.6270     4.7170 n1         1 B14      -0.317800
     29 H2           2.1710     0.1160    -0.7350 ha         1 B14       0.154000
     30 H3           3.1660     0.1100     1.2430 ha         1 B14       0.146000
     31 HN8         -2.7890    -0.3240     0.6100 hn         1 B14       0.340800
     32 H111        -2.5270    -2.2910     1.0610 hc         1 B14       0.058200
     33 H112        -1.0160    -2.3650     2.2810 hc         1 B14       0.058200
     34 H121        -2.2160    -4.0030     2.5270 h1         1 B14       0.041200
     35 H122        -1.6960    -3.0990     3.8950 h1         1 B14       0.041200
     36 H141        -4.2310    -1.3850     4.5350 h1         1 B14       0.041200
     37 H142        -5.5740    -1.5360     3.7780 h1         1 B14       0.041200
     38 H151        -4.2410    -0.0940     1.6200 hc         1 B14       0.058200
     39 H152        -4.3650    -0.0270     3.0500 hc         1 B14       0.058200
     40 H181         0.3800     1.1550     4.5640 hn         1 B14       0.325133
     41 H182         0.2710    -0.5140     4.7840 hn         1 B14       0.325133
     42 H20         -7.0380    -5.6440     2.4140 h4         1 B14       0.016100
     43 H23         -8.3480    -2.3180     5.6850 ha         1 B14       0.129000
     44 H24         -6.0410    -2.7900     5.5580 ha         1 B14       0.122000
     45 H183        -0.1890    -0.4080     5.4870 hn         1 B14       0.325133
@<TRIPOS>BOND
     1     1     2 ar  
     2     1    10 ar  
     3     1    12 1   
     4     2     3 ar  
     5     2    29 1   
     6     3     4 ar  
     7     3    30 1   
     8     4     5 ar  
     9     4    11 1   
    10     5     6 1   
    11     5    10 ar  
    12     6     7 2   
    13     6    20 1   
    14     7     8 1   
    15     8     9 1   
    16     8    13 1   
    17     8    17 1   
    18     9    10 1   
    19     9    31 1   
    20    13    14 1   
    21    13    32 1   
    22    13    33 1   
    23    14    15 1   
    24    14    34 1   
    25    14    35 1   
    26    15    16 1   
    27    15    18 1   
    28    16    17 1   
    29    16    36 1   
    30    16    37 1   
    31    17    38 1   
    32    17    39 1   
    33    18    19 2   
    34    18    21 1   
    35    20    40 1   
    36    20    41 1   
    37    20    45 1   
    38    21    22 ar  
    39    21    26 ar  
    40    22    23 ar  
    41    22    42 1   
    42    23    24 ar  
    43    24    25 ar  
    44    24    27 1   
    45    25    26 ar  
    46    25    43 1   
    47    26    44 1   
    48    27    28 3   
@<TRIPOS>SUBSTRUCTURE
     1 B14         1 TEMP              0 ****  ****    0 ROOT
