@<TRIPOS>MOLECULE
molecule
   55    58     1     0     0
SMALL
bcc


@<TRIPOS>ATOM
      1 C01          0.0000     0.0000     0.0000 ca         1 B18      -0.186600
      2 C02          1.3900     0.0000     0.0000 ca         1 B18       0.004000
      3 C03          2.0810     0.0000     1.2140 ca         1 B18      -0.110800
      4 C04          1.3540     0.0010     2.4280 ca         1 B18      -0.019200
      5 C05         -0.0390     0.0010     2.4020 ca         1 B18      -0.141000
      6 C06         -0.7050     0.0060     1.2120 ca         1 B18      -0.086000
      7 C07          3.4430    -0.0020     1.5600 cc         1 B18      -0.101400
      8 C08          3.5290     0.0020     2.9280 cd         1 B18      -0.124300
      9 N09          2.2680     0.0020     3.4590 na         1 B18      -0.123400
     10 C10          4.6720    -0.0070     0.6900 c3         1 B18      -0.019500
     11 C11          5.8030    -0.7160     1.4370 c3         1 B18       0.110000
     12 N12          5.9220    -0.2710     2.8210 ns         1 B18      -0.573900
     13 C13          4.8450     0.0060     3.5910 c          1 B18       0.742700
     14 O14          4.9590     0.2450     4.7790 o          1 B18      -0.640500
     15 C15         -0.7370    -0.0010    -1.2800 c          1 B18       0.682700
     16 O16         -0.1270    -0.0060    -2.3320 o          1 B18      -0.593100
     17 N17         -2.0840     0.0050    -1.2810 ns         1 B18      -0.515400
     18 C18         -2.7770     0.0040    -2.4840 cc         1 B18       0.550300
     19 S19         -2.0380    -0.0040    -4.0820 ss         1 B18      -0.055300
     20 C20         -3.5830     0.0010    -4.8170 cc         1 B18      -0.197400
     21 C21         -4.5300     0.0080    -3.8580 cd         1 B18       0.323800
     22 N22         -4.0670     0.0040    -2.6050 nd         1 B18      -0.732000
     23 C23         -5.9690     0.0140    -4.1680 c          1 B18       0.597600
     24 N24         -6.8750     0.0210    -3.1700 ns         1 B18      -0.573900
     25 O25         -6.3420     0.0120    -5.3270 o          1 B18      -0.611100
     26 C26         -8.3060     0.0270    -3.4800 c3         1 B18       0.111000
     27 C27         -9.1090     0.0340    -2.1770 c3         1 B18       0.144800
     28 N28        -10.5450     0.0400    -2.4860 n3         1 B18      -0.728600
     29 C29        -11.3460    -0.1910    -1.2770 c3         1 B18       0.149600
     30 C30        -10.9360     1.2930    -3.1450 c3         1 B18       0.149600
     31 C31          5.0870     1.4310     0.3770 c3         1 B18      -0.089100
     32 H02          1.9340    -0.0050    -0.9360 ha         1 B18       0.160000
     33 H05         -0.5960     0.0060     3.3310 ha         1 B18       0.136000
     34 H06         -1.7880     0.0060     1.2040 ha         1 B18       0.128000
     35 HN09         2.0460     0.0070     4.4350 hn         1 B18       0.318700
     36 H10          4.4610    -0.5380    -0.2310 hc         1 B18       0.073700
     37 H111         5.6120    -1.7820     1.4290 h1         1 B18       0.050200
     38 H112         6.7370    -0.5180     0.9260 h1         1 B18       0.050200
     39 HN12         6.8360    -0.1660     3.2150 hn         1 B18       0.334500
     40 HN17        -2.5860     0.0110    -0.4150 hn         1 B18       0.345500
     41 H20         -3.7700     0.0010    -5.8840 h4         1 B18       0.203000
     42 HN24        -6.5690    -0.0080    -2.2170 hn         1 B18       0.327500
     43 H261        -8.5550    -0.8580    -4.0520 h1         1 B18       0.060700
     44 H262        -8.5470     0.9110    -4.0580 h1         1 B18       0.060700
     45 H271        -8.8600     0.9190    -1.6040 h1         1 B18       0.036200
     46 H272        -8.8680    -0.8500    -1.5990 h1         1 B18       0.036200
     47 H291       -11.1870     0.6210    -0.5780 h1         1 B18       0.034200
     48 H292       -12.3950    -0.2390    -1.5430 h1         1 B18       0.034200
     49 H293       -11.0460    -1.1260    -0.8190 h1         1 B18       0.034200
     50 H301       -11.9960     1.4640    -2.9970 h1         1 B18       0.034200
     51 H302       -10.3750     2.1160    -2.7190 h1         1 B18       0.034200
     52 H303       -10.7270     1.2240    -4.2060 h1         1 B18       0.034200
     53 H311         5.0070     1.6060    -0.6890 hc         1 B18       0.043700
     54 H312         4.4360     2.1180     0.9050 hc         1 B18       0.043700
     55 H313         6.1110     1.5890     0.6930 hc         1 B18       0.043700
@<TRIPOS>BOND
     1     1    15 1
     2     1     6 ar
     3     1     2 ar
     4     2     3 ar
     5     2    32 1
     6     3     4 ar
     7     3     7 1
     8     4     5 ar
     9     4     9 1
    10     5     6 ar
    11     5    33 1
    12     6    34 1
    13     7    10 1
    14     7     8 2
    15     8     9 1
    16     8    13 1
    17     9    35 1
    18    10    31 1
    19    10    11 1
    20    10    36 1
    21    11    12 1
    22    11    37 1
    23    11    38 1
    24    12    13 1
    25    12    39 1
    26    13    14 2
    27    15    16 2
    28    15    17 1
    29    17    18 1
    30    17    40 1
    31    18    19 1
    32    18    22 2
    33    19    20 1
    34    20    21 2
    35    20    41 1
    36    21    23 1
    37    21    22 1
    38    23    25 2
    39    23    24 1
    40    24    26 1
    41    24    42 1
    42    26    27 1
    43    26    43 1
    44    26    44 1
    45    27    28 1
    46    27    45 1
    47    27    46 1
    48    28    30 1
    49    28    29 1
    50    29    47 1
    51    29    48 1
    52    29    49 1
    53    30    50 1
    54    30    51 1
    55    30    52 1
    56    31    53 1
    57    31    54 1
    58    31    55 1
@<TRIPOS>SUBSTRUCTURE
     1 B18         1 TEMP              0 ****  ****    0 ROOT
