@<TRIPOS>MOLECULE
B19
   45    47     1     0     0
SMALL
bcc


@<TRIPOS>ATOM
      1 C11          0.0000     0.0000     0.0000 c3         1 B19      -0.032600
      2 C10          1.5290     0.0000     0.0000 c3         1 B19       0.349600
      3 C12          2.0440     1.2410    -0.7300 c3         1 B19      -0.032600
      4 O3           2.0130     0.0000     1.3550 os         1 B19      -0.426600
      5 O4           2.0140    -1.1840    -0.6600 os         1 B19      -0.391600
      6 C3           3.2290    -1.5170     0.0680 c3         1 B19       0.074100
      7 C4           4.3090    -0.5460    -0.4300 c3         1 B19       0.096100
      8 O5           5.1350    -1.2820    -1.3740 os         1 B19      -0.384600
      9 C7           6.0010    -2.0820    -0.5480 c3         1 B19       0.348600
     10 C8           7.3750    -2.2030    -1.2110 c3         1 B19      -0.029100
     11 C9           5.3950    -3.4740    -0.3620 c3         1 B19      -0.029100
     12 O6           6.1360    -1.4380     0.7290 os         1 B19      -0.400600
     13 C5           5.3390    -0.2460     0.6750 c3         1 B19       0.118100
     14 C6           4.6600     0.0480     1.9980 c3         1 B19       0.197400
     15 O2           3.8670    -1.0630     2.4000 os         1 B19      -0.379600
     16 C2           2.7900    -1.1930     1.5050 c3         1 B19       0.329600
     17 C1           1.8730    -2.3140     2.0000 c3         1 B19       0.187800
     18 N2           1.3860    -1.9890     3.3420 n7         1 B19      -0.534100
     19 S1           0.1000    -2.8170     3.9790 s6         1 B19       1.004800
     20 O7          -0.8920    -2.8310     2.9610 o          1 B19      -0.492300
     21 O8          -0.0760    -2.3030     5.2920 o          1 B19      -0.492300
     22 N1           0.5720    -4.3920     4.1710 nz         1 B19      -0.159500
     23 H111        -0.3610     0.4150    -0.9330 hc         1 B19       0.029533
     24 H112        -0.3610     0.6010     0.8260 hc         1 B19       0.029533
     25 H113        -0.3610    -1.0160     0.1070 hc         1 B19       0.029533
     26 H121         2.4000     0.9600    -1.7140 hc         1 B19       0.029533
     27 H122         2.8570     1.6820    -0.1650 hc         1 B19       0.029533
     28 H123         1.2410     1.9620    -0.8290 hc         1 B19       0.029533
     29 H3           3.5100    -2.5560    -0.0560 h1         1 B19       0.097700
     30 H4           3.8940     0.3550    -0.8640 h1         1 B19       0.100700
     31 H81          7.7670    -1.2140    -1.4130 hc         1 B19       0.022700
     32 H82          8.0500    -2.7310    -0.5480 hc         1 B19       0.022700
     33 H83          7.2810    -2.7510    -2.1400 hc         1 B19       0.022700
     34 H91          6.1670    -4.2240    -0.4870 hc         1 B19       0.022700
     35 H92          4.6170    -3.6310    -1.0990 hc         1 B19       0.022700
     36 H93          4.9720    -3.5530     0.6320 hc         1 B19       0.022700
     37 H5           5.9560     0.5950     0.3830 h1         1 B19       0.048700
     38 H61          4.0250     0.9190     1.8880 h1         1 B19       0.040700
     39 H62          5.4140     0.2400     2.7520 h1         1 B19       0.040700
     40 H11          1.0320    -2.4170     1.3250 h1         1 B19       0.035700
     41 H12          2.4260    -3.2450     2.0320 h1         1 B19       0.035700
     42 HN2          1.8470    -1.2860     3.8850 hn         1 B19       0.406800
     43 HN11         1.4780    -4.4190     4.5940 hn         1 B19       0.318467
     44 HN12         0.6070    -4.8410     3.2770 hn         1 B19       0.318467
     45 H13         -0.0850    -4.8680     4.7580 hn         1 B19       0.318467
@<TRIPOS>BOND
     1     1     2 1   
     2     1    23 1   
     3     1    24 1   
     4     1    25 1   
     5     2     3 1   
     6     2     4 1   
     7     2     5 1   
     8     3    26 1   
     9     3    27 1   
    10     3    28 1   
    11     4    16 1   
    12     5     6 1   
    13     6     7 1   
    14     6    16 1   
    15     6    29 1   
    16     7     8 1   
    17     7    13 1   
    18     7    30 1   
    19     8     9 1   
    20     9    10 1   
    21     9    11 1   
    22     9    12 1   
    23    10    31 1   
    24    10    32 1   
    25    10    33 1   
    26    11    34 1   
    27    11    35 1   
    28    11    36 1   
    29    12    13 1   
    30    13    14 1   
    31    13    37 1   
    32    14    15 1   
    33    14    38 1   
    34    14    39 1   
    35    15    16 1   
    36    16    17 1   
    37    17    18 1   
    38    17    40 1   
    39    17    41 1   
    40    18    19 1   
    41    18    42 1   
    42    19    20 2   
    43    19    21 2   
    44    19    22 1   
    45    22    43 1   
    46    22    44 1   
    47    22    45 1   
@<TRIPOS>SUBSTRUCTURE
     1 B19         1 TEMP              0 ****  ****    0 ROOT
