@<TRIPOS>MOLECULE
B1A
   31    32     1     0     0
SMALL
bcc


@<TRIPOS>ATOM
      1 N1           0.0000     0.0000     0.0000 ns         1 B1A      -0.035100
      2 C4          -0.1840    -0.8670     2.2480 ca         1 B1A      -0.079500
      3 C5          -0.8740    -0.9680     3.4390 ca         1 B1A      -0.143500
      4 C6          -2.0880    -0.3120     3.5970 ca         1 B1A       0.016600
      5 C7          -2.6070     0.4470     2.5550 ca         1 B1A      -0.143500
      6 C8          -1.9170     0.5490     1.3640 ca         1 B1A      -0.079500
      7 C10         -3.3390     1.9340     4.8810 ca         1 B1A      -0.154500
      8 C13         -5.6120     1.3530     6.3530 ca         1 B1A      -0.068500
      9 C2           1.3480     0.0000     0.0000 c          1 B1A       0.556100
     10 O1           1.9540     0.0000     1.0500 o          1 B1A      -0.635100
     11 C3          -0.7010    -0.1030     1.2090 ca         1 B1A      -0.128400
     12 C9          -3.6370     0.6170     5.2100 ca         1 B1A       0.022600
     13 C11         -4.1770     2.9510     5.2880 ca         1 B1A      -0.068500
     14 C12         -5.3130     2.6630     6.0230 ca         1 B1A      -0.137000
     15 C14         -4.7810     0.3300     5.9440 ca         1 B1A      -0.154500
     16 H1          -0.5000     0.0670    -0.8640 hn         1 B1A       0.164500
     17 H2           0.7630    -1.3780     2.1250 ha         1 B1A       0.120000
     18 H3          -0.4690    -1.5620     4.2490 ha         1 B1A       0.118000
     19 H4          -3.5550     0.9570     2.6770 ha         1 B1A       0.118000
     20 H5          -2.3220     1.1410     0.5530 ha         1 B1A       0.120000
     21 H7          -6.5030     1.1300     6.9270 ha         1 B1A       0.100500
     22 H12         -3.9460     3.9780     5.0320 ha         1 B1A       0.100500
     23 H13         -5.9680     3.4640     6.3430 ha         1 B1A       0.103000
     24 H14         -5.0160    -0.6960     6.2020 ha         1 B1A       0.116500
     25 N2          -2.7870    -0.4160     4.8040 nu         1 B1A      -0.232000
     26 C1           2.1010     0.0000    -1.3050 c3         1 B1A      -0.069100
     27 H6          -2.4500     2.1610     4.3050 ha         1 B1A       0.116500
     28 H8           1.7210    -0.7900    -1.9410 hc         1 B1A       0.023367
     29 H9           1.9690     0.9560    -1.7980 hc         1 B1A       0.023367
     30 H10          3.1540    -0.1650    -1.1140 hc         1 B1A       0.023367
     31 H11         -2.6600    -1.2180     5.3890 hn         1 B1A       0.285800
@<TRIPOS>BOND
     1     1     9 1   
     2     1    11 1   
     3     1    16 1   
     4     2     3 ar  
     5     2    11 ar  
     6     2    17 1   
     7     3     4 ar  
     8     3    18 1   
     9     4     5 ar  
    10     4    25 1   
    11     5     6 ar  
    12     5    19 1   
    13     6    11 ar  
    14     6    20 1   
    15     7    12 ar  
    16     7    13 ar  
    17     7    27 1   
    18     8    14 ar  
    19     8    15 ar  
    20     8    21 1   
    21     9    10 2   
    22     9    26 1   
    23    12    15 ar  
    24    12    25 1   
    25    13    14 ar  
    26    13    22 1   
    27    14    23 1   
    28    15    24 1   
    29    25    31 1   
    30    26    28 1   
    31    26    29 1   
    32    26    30 1   
@<TRIPOS>SUBSTRUCTURE
     1 B1A         1 TEMP              0 ****  ****    0 ROOT
