@<TRIPOS>MOLECULE
molecule
   41    41     1     0     0
SMALL
bcc


@<TRIPOS>ATOM
      1 Cl1          0.0000     0.0000     0.0000 cl         1 B1B      -0.088400
      2 CG1          1.7360     0.0000     0.0000 ca         1 B1B       0.036400
      3 CD1          2.4280     0.0000     1.1980 ca         1 B1B      -0.125000
      4 C3           3.8090    -0.0000     1.1970 ca         1 B1B      -0.113000
      5 C4           4.5000    -0.0000     0.0000 ca         1 B1B      -0.132000
      6 CG2          3.8100     0.0010    -1.1970 ca         1 B1B      -0.104000
      7 CB           2.4280    -0.0060    -1.1980 ca         1 B1B      -0.112300
      8 CA           1.6750    -0.0060    -2.5040 c3         1 B1B       0.179300
      9 N            1.1270    -1.3410    -2.7520 ns         1 B1B      -0.594900
     10 C8           0.4110    -1.5790    -3.8690 c          1 B1B       0.792100
     11 O            0.2200    -0.6850    -4.6700 o          1 B1B      -0.659100
     12 N2          -0.0930    -2.8090    -4.0970 ns         1 B1B      -0.578900
     13 C9          -0.8710    -3.0670    -5.3110 c3         1 B1B       0.072700
     14 C10         -0.7940    -4.5550    -5.6580 c3         1 B1B      -0.089400
     15 C11          0.6470    -4.9220    -6.0160 c3         1 B1B      -0.078700
     16 C12          0.7470    -6.4320    -6.2420 c3         1 B1B      -0.091100
     17 C13          1.0590    -4.1860    -7.2930 c3         1 B1B      -0.091100
     18 C14         -2.3090    -2.6790    -5.0780 c          1 B1B       0.651100
     19 O2          -2.6490    -2.2300    -4.0040 o          1 B1B      -0.558100
     20 N3          -3.2160    -2.8310    -6.0630 ns         1 B1B      -0.474400
     21 O3          -4.5660    -2.4650    -5.8450 oh         1 B1B      -0.362100
     22 H1           1.8870    -0.0000     2.1360 ha         1 B1B       0.146000
     23 H2           4.3510    -0.0010     2.1350 ha         1 B1B       0.137000
     24 H3           5.5840     0.0020     0.0010 ha         1 B1B       0.136000
     25 H4           4.3520    -0.0020    -2.1350 ha         1 B1B       0.141000
     26 H5           2.3490     0.2640    -3.3080 h1         1 B1B       0.065200
     27 H6           0.8660     0.7130    -2.4540 h1         1 B1B       0.065200
     28 H7           1.3030    -2.0830    -2.1030 hn         1 B1B       0.311500
     29 H8           0.0180    -3.5300    -3.4110 hn         1 B1B       0.316500
     30 H9          -0.4670    -2.4830    -6.1300 h1         1 B1B       0.100700
     31 H10         -1.1150    -5.1410    -4.8050 hc         1 B1B       0.053700
     32 H11         -1.4400    -4.7630    -6.5020 hc         1 B1B       0.053700
     33 H12          1.3050    -4.6340    -5.2050 hc         1 B1B       0.057700
     34 H13          0.3800    -6.9540    -5.3670 hc         1 B1B       0.036867
     35 H14          0.1510    -6.7080    -7.1040 hc         1 B1B       0.036867
     36 H15          1.7820    -6.7030    -6.4170 hc         1 B1B       0.036867
     37 H16          0.2180    -4.1480    -7.9750 hc         1 B1B       0.036867
     38 H17          1.8810    -4.7120    -7.7630 hc         1 B1B       0.036867
     39 H18          1.3690    -3.1780    -7.0450 hc         1 B1B       0.036867
     40 H19         -2.9280    -3.1720    -6.9590 hn         1 B1B       0.316500
     41 H20         -5.0090    -2.3870    -6.6740 ho         1 B1B       0.396000
@<TRIPOS>BOND
     1    21    20 1
     2    20    18 1
     3    19    18 2
     4    18    13 1
     5    16    15 1
     6    15    17 1
     7    15    14 1
     8    13    14 1
     9    13    12 1
    10    12    10 1
    11    10    11 2
    12    10     9 1
    13     9     8 1
    14     8     7 1
    15     6     7 ar
    16     6     5 ar
    17     7     2 ar
    18     5     4 ar
    19     2     1 1
    20     2     3 ar
    21     4     3 ar
    22     3    22 1
    23     4    23 1
    24     5    24 1
    25     6    25 1
    26     8    26 1
    27     8    27 1
    28     9    28 1
    29    12    29 1
    30    13    30 1
    31    14    31 1
    32    14    32 1
    33    15    33 1
    34    16    34 1
    35    16    35 1
    36    16    36 1
    37    17    37 1
    38    17    38 1
    39    17    39 1
    40    20    40 1
    41    21    41 1
@<TRIPOS>SUBSTRUCTURE
     1 B1B         1 TEMP              0 ****  ****    0 ROOT
