@<TRIPOS>MOLECULE
B1B
   41    41     1     0     0
SMALL
bcc


@<TRIPOS>ATOM
      1 Cl1          0.0000     0.0000     0.0000 cl         1 B1B      -0.003400
      2 CG1          1.7360     0.0000     0.0000 ca         1 B1B      -0.030600
      3 CD1          2.4280     0.0000     1.1980 ca         1 B1B      -0.100000
      4 C3           3.8090    -0.0000     1.1970 ca         1 B1B      -0.085000
      5 C4           4.5000    -0.0000     0.0000 ca         1 B1B      -0.104000
      6 CG2          3.8100     0.0010    -1.1970 ca         1 B1B      -0.075000
      7 CB           2.4280    -0.0060    -1.1980 ca         1 B1B      -0.120300
      8 CA           1.6750    -0.0060    -2.5040 c3         1 B1B       0.122300
      9 N            1.1270    -1.3410    -2.7520 ns         1 B1B      -0.212900
     10 C8           0.4110    -1.5790    -3.8690 c          1 B1B       0.588100
     11 O            0.2200    -0.6850    -4.6700 o          1 B1B      -0.709100
     12 N2          -0.0930    -2.8090    -4.0970 ns         1 B1B      -0.183900
     13 C9          -0.8710    -3.0670    -5.3110 c3         1 B1B      -0.039300
     14 C10         -0.7940    -4.5550    -5.6580 c3         1 B1B      -0.036400
     15 C11          0.6470    -4.9220    -6.0160 c3         1 B1B      -0.057700
     16 C12          0.7470    -6.4320    -6.2420 c3         1 B1B       0.002900
     17 C13          1.0590    -4.1860    -7.2930 c3         1 B1B       0.002900
     18 C14         -2.3090    -2.6790    -5.0780 c          1 B1B       0.557100
     19 O2          -2.6490    -2.2300    -4.0040 o          1 B1B      -0.608100
     20 N3          -3.2160    -2.8310    -6.0630 ns         1 B1B      -0.058400
     21 O3          -4.5660    -2.4650    -5.8450 oh         1 B1B      -0.437100
     22 H1           1.8870    -0.0000     2.1360 ha         1 B1B       0.116000
     23 H2           4.3510    -0.0010     2.1350 ha         1 B1B       0.106000
     24 H3           5.5840     0.0020     0.0010 ha         1 B1B       0.106000
     25 H4           4.3520    -0.0020    -2.1350 ha         1 B1B       0.111000
     26 H5           2.3490     0.2640    -3.3080 h1         1 B1B       0.034200
     27 H6           0.8660     0.7130    -2.4540 h1         1 B1B       0.034200
     28 H7           1.3030    -2.0830    -2.1030 hn         1 B1B       0.170500
     29 H8           0.0180    -3.5300    -3.4110 hn         1 B1B       0.171500
     30 H9          -0.4670    -2.4830    -6.1300 h1         1 B1B       0.075700
     31 H10         -1.1150    -5.1410    -4.8050 hc         1 B1B       0.025200
     32 H11         -1.4400    -4.7630    -6.5020 hc         1 B1B       0.025200
     33 H12          1.3050    -4.6340    -5.2050 hc         1 B1B       0.030700
     34 H13          0.3800    -6.9540    -5.3670 hc         1 B1B       0.006033
     35 H14          0.1510    -6.7080    -7.1040 hc         1 B1B       0.006033
     36 H15          1.7820    -6.7030    -6.4170 hc         1 B1B       0.006033
     37 H16          0.2180    -4.1480    -7.9750 hc         1 B1B       0.006033
     38 H17          1.8810    -4.7120    -7.7630 hc         1 B1B       0.006033
     39 H18          1.3690    -3.1780    -7.0450 hc         1 B1B       0.006033
     40 H19         -2.9280    -3.1720    -6.9590 hn         1 B1B       0.155500
     41 H20         -5.0090    -2.3870    -6.6740 ho         1 B1B       0.390000
@<TRIPOS>BOND
     1     1     2 1   
     2     2     3 ar  
     3     2     7 ar  
     4     3     4 ar  
     5     3    22 1   
     6     4     5 ar  
     7     4    23 1   
     8     5     6 ar  
     9     5    24 1   
    10     6     7 ar  
    11     6    25 1   
    12     7     8 1   
    13     8     9 1   
    14     8    26 1   
    15     8    27 1   
    16     9    10 1   
    17     9    28 1   
    18    10    11 2   
    19    10    12 1   
    20    12    13 1   
    21    12    29 1   
    22    13    14 1   
    23    13    18 1   
    24    13    30 1   
    25    14    15 1   
    26    14    31 1   
    27    14    32 1   
    28    15    16 1   
    29    15    17 1   
    30    15    33 1   
    31    16    34 1   
    32    16    35 1   
    33    16    36 1   
    34    17    37 1   
    35    17    38 1   
    36    17    39 1   
    37    18    19 2   
    38    18    20 1   
    39    20    21 1   
    40    20    40 1   
    41    21    41 1   
@<TRIPOS>SUBSTRUCTURE
     1 B1B         1 TEMP              0 ****  ****    0 ROOT
