@<TRIPOS>MOLECULE
B1C
   38    38     1     0     0
SMALL
bcc


@<TRIPOS>ATOM
      1 O1           0.0000     0.0000     0.0000 o          1 B1C      -0.672000
      2 C4           1.2150     0.0000     0.0000 c          1 B1C       0.681100
      3 O2           1.8880     0.0000     1.1650 os         1 B1C      -0.432900
      4 CT           1.0990     0.0000     2.3840 c3         1 B1C       0.199800
      5 C1           2.0320     0.0010     3.5960 c3         1 B1C      -0.031100
      6 C2           0.2170     1.2500     2.4190 c3         1 B1C      -0.031100
      7 C3           0.2160    -1.2480     2.4190 c3         1 B1C      -0.031100
      8 N            1.8880    -0.0070    -1.1680 ns         1 B1C      -0.121900
      9 CA           1.1540    -0.0130    -2.4370 c3         1 B1C      -0.084300
     10 C            0.7950    -1.4300    -2.8010 c          1 B1C       0.972600
     11 OXT          0.1150    -1.6810    -3.9320 o          1 B1C      -0.886800
     12 CB           2.0310     0.5910    -3.5350 c3         1 B1C       0.027900
     13 CG           2.2890     2.0440    -3.2310 ca         1 B1C      -0.081300
     14 CD1          3.3880     2.4060    -2.4750 ca         1 B1C      -0.082000
     15 CD2          1.4280     3.0130    -3.7130 ca         1 B1C      -0.082000
     16 CE1          3.6260     3.7380    -2.1950 ca         1 B1C      -0.142500
     17 CE2          1.6620     4.3460    -3.4360 ca         1 B1C      -0.142500
     18 CZ           2.7620     4.7120    -2.6730 ca         1 B1C       0.094100
     19 OH           2.9940     6.0220    -2.3980 oh         1 B1C      -0.506100
     20 O            1.1180    -2.3420    -2.0770 o          1 B1C      -0.886800
     21 H1           2.6520     0.8890     3.5750 hc         1 B1C       0.015144
     22 H2           1.4420    -0.0060     4.5050 hc         1 B1C       0.015144
     23 H3           2.6620    -0.8800     3.5680 hc         1 B1C       0.015144
     24 H4           0.7700     2.0940     2.0250 hc         1 B1C       0.015144
     25 H5          -0.0770     1.4560     3.4410 hc         1 B1C       0.015144
     26 H6          -0.6670     1.0850     1.8150 hc         1 B1C       0.015144
     27 H7          -0.6800    -1.0740     1.8370 hc         1 B1C       0.015144
     28 H8          -0.0570    -1.4690     3.4440 hc         1 B1C       0.015144
     29 H9           0.7600    -2.0870     2.0020 hc         1 B1C       0.015144
     30 H10          2.8870    -0.0650    -1.1690 hn         1 B1C       0.155500
     31 H11          0.2490     0.5740    -2.3330 h1         1 B1C       0.059700
     32 H13          1.5250     0.5050    -4.4890 hc         1 B1C       0.035200
     33 H14          2.9740     0.0580    -3.5770 hc         1 B1C       0.035200
     34 H15          4.0830     1.6490    -2.1340 ha         1 B1C       0.111000
     35 H16          0.5750     2.7270    -4.3170 ha         1 B1C       0.111000
     36 H17          4.5080     4.0240    -1.6330 ha         1 B1C       0.103500
     37 H18          0.9560     5.0990    -3.7630 ha         1 B1C       0.103500
     38 H19          3.5010     6.4040    -3.0950 ho         1 B1C       0.389000
@<TRIPOS>BOND
     1     1     2 2   
     2     2     3 1   
     3     2     8 1   
     4     3     4 1   
     5     4     5 1   
     6     4     6 1   
     7     4     7 1   
     8     5    21 1   
     9     5    22 1   
    10     5    23 1   
    11     6    24 1   
    12     6    25 1   
    13     6    26 1   
    14     7    27 1   
    15     7    28 1   
    16     7    29 1   
    17     8     9 1   
    18     8    30 1   
    19     9    10 1   
    20     9    12 1   
    21     9    31 1   
    22    10    11 1   
    23    10    20 1   
    24    12    13 1   
    25    12    32 1   
    26    12    33 1   
    27    13    14 ar  
    28    13    15 ar  
    29    14    16 ar  
    30    14    34 1   
    31    15    17 ar  
    32    15    35 1   
    33    16    18 ar  
    34    16    36 1   
    35    17    18 ar  
    36    17    37 1   
    37    18    19 1   
    38    19    38 1   
@<TRIPOS>SUBSTRUCTURE
     1 B1C         1 TEMP              0 ****  ****    0 ROOT
