@<TRIPOS>MOLECULE
molecule
   59    62     1     0     0
SMALL
bcc


@<TRIPOS>ATOM
      1 C1           0.0000     0.0000     0.0000 ca         1 B1E      -0.188600
      2 C2           1.4130     0.0000     0.0000 ca         1 B1E       0.173400
      3 C3           2.1000     0.0000     1.2160 ca         1 B1E      -0.101000
      4 C4           1.4040     0.0010     2.3910 ca         1 B1E      -0.110000
      5 C5           0.0100    -0.0000     2.3980 ca         1 B1E       0.072600
      6 C6          -0.6970     0.0070     1.2050 ca         1 B1E      -0.086000
      7 C7          -0.6910    -0.0010    -1.2980 c          1 B1E       0.705100
      8 N8           0.0760    -0.0010    -2.4120 n          1 B1E      -0.387300
      9 C9           1.4330    -0.0010    -2.3180 cc         1 B1E       0.498800
     10 N10          2.0710    -0.0000    -1.1880 nd         1 B1E      -0.644100
     11 O11         -1.9060    -0.0010    -1.3670 o          1 B1E      -0.616500
     12 N12         -0.6790     0.0000     3.6140 nu         1 B1E      -0.543000
     13 C13         -1.8050    -0.8110     3.7790 ca         1 B1E       0.062600
     14 C14         -2.5850    -0.6930     4.9220 ca         1 B1E      -0.114300
     15 C15         -3.6990    -1.4950     5.0860 ca         1 B1E      -0.089000
     16 C16         -4.0400    -2.4150     4.1140 ca         1 B1E      -0.142000
     17 C17         -3.2640    -2.5380     2.9680 ca         1 B1E       0.033600
     18 C18         -2.1490    -1.7310     2.7970 ca         1 B1E      -0.221000
     19 C19         -2.2170     0.3090     5.9850 c3         1 B1E      -0.038800
     20 N20         -3.6130    -3.4670     1.9810 ns         1 B1E      -0.364100
     21 C21         -4.1800    -4.6380     2.3310 c          1 B1E       0.601700
     22 C22         -4.6620    -5.5660     1.2850 ca         1 B1E      -0.105600
     23 O23         -4.2950    -4.9330     3.5040 o          1 B1E      -0.575100
     24 C24         -5.2540    -6.7790     1.6420 ca         1 B1E      -0.076000
     25 C25         -5.7080    -7.6370     0.6620 ca         1 B1E      -0.102300
     26 C26         -5.5750    -7.2990    -0.6730 ca         1 B1E      -0.115000
     27 C27         -4.9870    -6.0990    -1.0350 ca         1 B1E      -0.145000
     28 C28         -4.5310    -5.2310    -0.0640 ca         1 B1E      -0.128000
     29 C29         -6.3470    -8.9460     1.0460 c3         1 B1E       0.054400
     30 C30         -7.5390    -8.6860     1.8700 c1         1 B1E       0.216700
     31 C31         -6.7570    -9.7030    -0.2180 c3         1 B1E      -0.083600
     32 C32         -5.3490    -9.7870     1.8440 c3         1 B1E      -0.083600
     33 C33         -0.5590    -0.0020    -3.7320 c3         1 B1E       0.084300
     34 N34         -8.4540    -8.5010     2.5180 n1         1 B1E      -0.362800
     35 H1           3.1830     0.0000     1.2260 ha         1 B1E       0.153000
     36 H2           1.9350     0.0010     3.3350 ha         1 B1E       0.142000
     37 H3          -1.7800     0.0070     1.2050 ha         1 B1E       0.175000
     38 H4           2.0340    -0.0010    -3.2190 h5         1 B1E       0.056800
     39 H5          -0.5700    -0.7640     4.2500 hn         1 B1E       0.414800
     40 H6          -4.3060    -1.4030     5.9770 ha         1 B1E       0.141000
     41 H7          -4.9130    -3.0430     4.2450 ha         1 B1E       0.160000
     42 H8          -1.6030    -1.7540     1.8620 ha         1 B1E       0.158000
     43 H9          -2.1170     1.2900     5.5380 hc         1 B1E       0.046367
     44 H10         -2.9910     0.3340     6.7420 hc         1 B1E       0.046367
     45 H11         -1.2760     0.0230     6.4410 hc         1 B1E       0.046367
     46 H12         -2.9530    -4.1610     1.6920 hn         1 B1E       0.286500
     47 H13         -6.0500    -6.7970     2.3770 ha         1 B1E       0.167000
     48 H14         -5.9320    -7.9740    -1.4410 ha         1 B1E       0.140000
     49 H15         -4.8860    -5.8400    -2.0810 ha         1 B1E       0.142000
     50 H16         -5.0720    -4.3840    -0.4670 ha         1 B1E       0.177000
     51 H17         -7.3100    -9.0410    -0.8730 hc         1 B1E       0.050367
     52 H18         -5.8710   -10.0590    -0.7290 hc         1 B1E       0.050367
     53 H19         -7.3810   -10.5470     0.0530 hc         1 B1E       0.050367
     54 H20         -4.9480    -9.1950     2.6590 hc         1 B1E       0.050367
     55 H21         -5.8510   -10.6590     2.2440 hc         1 B1E       0.050367
     56 H22         -4.5410   -10.1010     1.1950 hc         1 B1E       0.050367
     57 H23         -1.3470    -0.7450    -3.7530 h1         1 B1E       0.056033
     58 H24          0.1790    -0.2370    -4.4890 h1         1 B1E       0.056033
     59 H25         -0.9810     0.9770    -3.9310 h1         1 B1E       0.056033
@<TRIPOS>BOND
     1    32    29 1
     2    34    30 3
     3    30    29 1
     4    29    31 1
     5    29    25 1
     6    25    26 ar
     7    25    24 ar
     8    26    27 ar
     9    24    22 ar
    10    27    28 ar
    11    22    28 ar
    12    22    21 1
    13    23    21 2
    14    21    20 1
    15    20    17 1
    16    17    18 ar
    17    17    16 ar
    18    18    13 ar
    19    16    15 ar
    20    13    12 1
    21    13    14 ar
    22    12     5 1
    23     4     5 ar
    24     4     3 ar
    25     5     6 ar
    26     3     2 ar
    27     6     1 ar
    28     2     1 ar
    29     2    10 1
    30    15    14 ar
    31     1     7 1
    32    10     9 2
    33    14    19 1
    34     7    11 2
    35     7     8 1
    36     9     8 1
    37     8    33 1
    38     3    35 1
    39     4    36 1
    40     6    37 1
    41     9    38 1
    42    12    39 1
    43    15    40 1
    44    16    41 1
    45    18    42 1
    46    19    43 1
    47    19    44 1
    48    19    45 1
    49    20    46 1
    50    24    47 1
    51    26    48 1
    52    27    49 1
    53    28    50 1
    54    31    51 1
    55    31    52 1
    56    31    53 1
    57    32    54 1
    58    32    55 1
    59    32    56 1
    60    33    57 1
    61    33    58 1
    62    33    59 1
@<TRIPOS>SUBSTRUCTURE
     1 B1E         1 TEMP              0 ****  ****    0 ROOT
