@<TRIPOS>MOLECULE
B1E
   59    62     1     0     0
SMALL
bcc


@<TRIPOS>ATOM
      1 C1           0.0000     0.0000     0.0000 ca         1 B1E      -0.190600
      2 C2           1.4130     0.0000     0.0000 ca         1 B1E       0.127400
      3 C3           2.1000     0.0000     1.2160 ca         1 B1E      -0.069000
      4 C4           1.4040     0.0010     2.3910 ca         1 B1E      -0.091000
      5 C5           0.0100    -0.0000     2.3980 ca         1 B1E       0.004600
      6 C6          -0.6970     0.0070     1.2050 ca         1 B1E      -0.067000
      7 C7          -0.6910    -0.0010    -1.2980 c          1 B1E       0.624100
      8 N8           0.0760    -0.0010    -2.4120 n          1 B1E       0.016700
      9 C9           1.4330    -0.0010    -2.3180 cc         1 B1E       0.330800
     10 N10          2.0710    -0.0000    -1.1880 nd         1 B1E      -0.535100
     11 O11         -1.9060    -0.0010    -1.3670 o          1 B1E      -0.661500
     12 N12         -0.6790     0.0000     3.6140 nu         1 B1E      -0.324000
     13 C13         -1.8050    -0.8110     3.7790 ca         1 B1E       0.024600
     14 C14         -2.5850    -0.6930     4.9220 ca         1 B1E      -0.130300
     15 C15         -3.6990    -1.4950     5.0860 ca         1 B1E      -0.053000
     16 C16         -4.0400    -2.4150     4.1140 ca         1 B1E      -0.126000
     17 C17         -3.2640    -2.5380     2.9680 ca         1 B1E      -0.048400
     18 C18         -2.1490    -1.7310     2.7970 ca         1 B1E      -0.222000
     19 C19         -2.2170     0.3090     5.9850 c3         1 B1E       0.070200
     20 N20         -3.6130    -3.4670     1.9810 ns         1 B1E      -0.092100
     21 C21         -4.1800    -4.6380     2.3310 c          1 B1E       0.589700
     22 C22         -4.6620    -5.5660     1.2850 ca         1 B1E      -0.105600
     23 O23         -4.2950    -4.9330     3.5040 o          1 B1E      -0.613100
     24 C24         -5.2540    -6.7790     1.6420 ca         1 B1E      -0.052000
     25 C25         -5.7080    -7.6370     0.6620 ca         1 B1E      -0.115300
     26 C26         -5.5750    -7.2990    -0.6730 ca         1 B1E      -0.102000
     27 C27         -4.9870    -6.0990    -1.0350 ca         1 B1E      -0.106000
     28 C28         -4.5310    -5.2310    -0.0640 ca         1 B1E      -0.118000
     29 C29         -6.3470    -8.9460     1.0460 c3         1 B1E       0.126400
     30 C30         -7.5390    -8.6860     1.8700 c1         1 B1E       0.195700
     31 C31         -6.7570    -9.7030    -0.2180 c3         1 B1E      -0.004100
     32 C32         -5.3490    -9.7870     1.8440 c3         1 B1E      -0.004100
     33 C33         -0.5590    -0.0020    -3.7320 c3         1 B1E       0.065300
     34 N34         -8.4540    -8.5010     2.5180 n1         1 B1E      -0.375800
     35 H1           3.1830     0.0000     1.2260 ha         1 B1E       0.121000
     36 H2           1.9350     0.0010     3.3350 ha         1 B1E       0.111000
     37 H3          -1.7800     0.0070     1.2050 ha         1 B1E       0.152000
     38 H4           2.0340    -0.0010    -3.2190 h5         1 B1E       0.007800
     39 H5          -0.5700    -0.7640     4.2500 hn         1 B1E       0.329800
     40 H6          -4.3060    -1.4030     5.9770 ha         1 B1E       0.110000
     41 H7          -4.9130    -3.0430     4.2450 ha         1 B1E       0.138000
     42 H8          -1.6030    -1.7540     1.8620 ha         1 B1E       0.146000
     43 H9          -2.1170     1.2900     5.5380 hc         1 B1E       0.010367
     44 H10         -2.9910     0.3340     6.7420 hc         1 B1E       0.010367
     45 H11         -1.2760     0.0230     6.4410 hc         1 B1E       0.010367
     46 H12         -2.9530    -4.1610     1.6920 hn         1 B1E       0.179500
     47 H13         -6.0500    -6.7970     2.3770 ha         1 B1E       0.140000
     48 H14         -5.9320    -7.9740    -1.4410 ha         1 B1E       0.121000
     49 H15         -4.8860    -5.8400    -2.0810 ha         1 B1E       0.112000
     50 H16         -5.0720    -4.3840    -0.4670 ha         1 B1E       0.148000
     51 H17         -7.3100    -9.0410    -0.8730 hc         1 B1E       0.019200
     52 H18         -5.8710   -10.0590    -0.7290 hc         1 B1E       0.019200
     53 H19         -7.3810   -10.5470     0.0530 hc         1 B1E       0.019200
     54 H20         -4.9480    -9.1950     2.6590 hc         1 B1E       0.019200
     55 H21         -5.8510   -10.6590     2.2440 hc         1 B1E       0.019200
     56 H22         -4.5410   -10.1010     1.1950 hc         1 B1E       0.019200
     57 H23         -1.3470    -0.7450    -3.7530 h1         1 B1E       0.023367
     58 H24          0.1790    -0.2370    -4.4890 h1         1 B1E       0.023367
     59 H25         -0.9810     0.9770    -3.9310 h1         1 B1E       0.023367
@<TRIPOS>BOND
     1     1     2 ar  
     2     1     6 ar  
     3     1     7 1   
     4     2     3 ar  
     5     2    10 1   
     6     3     4 ar  
     7     3    35 1   
     8     4     5 ar  
     9     4    36 1   
    10     5     6 ar  
    11     5    12 1   
    12     6    37 1   
    13     7     8 1   
    14     7    11 2   
    15     8     9 1   
    16     8    33 1   
    17     9    10 2   
    18     9    38 1   
    19    12    13 1   
    20    12    39 1   
    21    13    14 ar  
    22    13    18 ar  
    23    14    15 ar  
    24    14    19 1   
    25    15    16 ar  
    26    15    40 1   
    27    16    17 ar  
    28    16    41 1   
    29    17    18 ar  
    30    17    20 1   
    31    18    42 1   
    32    19    43 1   
    33    19    44 1   
    34    19    45 1   
    35    20    21 1   
    36    20    46 1   
    37    21    22 1   
    38    21    23 2   
    39    22    24 ar  
    40    22    28 ar  
    41    24    25 ar  
    42    24    47 1   
    43    25    26 ar  
    44    25    29 1   
    45    26    27 ar  
    46    26    48 1   
    47    27    28 ar  
    48    27    49 1   
    49    28    50 1   
    50    29    30 1   
    51    29    31 1   
    52    29    32 1   
    53    30    34 3   
    54    31    51 1   
    55    31    52 1   
    56    31    53 1   
    57    32    54 1   
    58    32    55 1   
    59    32    56 1   
    60    33    57 1   
    61    33    58 1   
    62    33    59 1   
@<TRIPOS>SUBSTRUCTURE
     1 B1E         1 TEMP              0 ****  ****    0 ROOT
