@<TRIPOS>MOLECULE
B1H
   42    44     1     0     0
SMALL
bcc


@<TRIPOS>ATOM
      1 C1           0.0000     0.0000     0.0000 cc         1 B1H       0.289800
      2 C4           0.6440    -0.0010     2.0670 cd         1 B1H       0.432000
      3 C6           0.5800    -0.0010     3.5470 cc         1 B1H       0.212000
      4 N2           1.3460     0.0000     0.0000 na         1 B1H       0.376600
      5 C8           1.7070     0.0000     5.6570 cd         1 B1H      -0.029600
      6 N3           1.7460     0.0000     1.3470 nd         1 B1H      -0.642800
      7 C9           0.4610    -0.0010     6.3110 cd         1 B1H      -0.289100
      8 C7           1.7620     0.0000     4.2950 cc         1 B1H      -0.114000
      9 O13         -0.6770    -0.0080     8.2140 oh         1 B1H      -0.533200
     10 N12          0.4030    -0.0070     7.6510 nh         1 B1H       1.105500
     11 O14          1.4310    -0.0110     8.3050 o          1 B1H      -0.356000
     12 C10         -0.7250     0.0040     5.5530 cd         1 B1H      -0.029600
     13 C11         -0.6610     0.0040     4.1910 cc         1 B1H      -0.114000
     14 N5          -0.4110    -0.0010     1.2400 nd         1 B1H      -0.645000
     15 C1'         -0.8830     0.0050    -1.2220 c3         1 B1H       0.162800
     16 O5'         -1.6190     1.2290    -1.2720 os         1 B1H      -0.376600
     17 C2'         -1.8580    -1.1730    -1.1520 c3         1 B1H       0.140100
     18 O2'         -1.1260    -2.4000    -1.1580 oh         1 B1H      -0.590800
     19 C3'         -2.7900    -1.1260    -2.3680 c3         1 B1H       0.143100
     20 O3'         -3.7520    -2.1780    -2.2730 oh         1 B1H      -0.584800
     21 C4'         -3.5120     0.2260    -2.3910 c3         1 B1H       0.142100
     22 O4'         -4.3300     0.3100    -3.5600 oh         1 B1H      -0.574800
     23 C5'         -2.4720     1.3500    -2.4120 c3         1 B1H       0.165100
     24 C6'         -3.1850     2.7030    -2.3750 c3         1 B1H       0.227400
     25 O6'         -2.2230     3.7520    -2.5120 oh         1 B1H      -0.588800
     26 H1           1.9440     0.0010    -0.8020 hn         1 B1H       0.175700
     27 H2           2.6230     0.0010     6.2360 ha         1 B1H       0.139500
     28 H3           2.7210     0.0010     3.7920 ha         1 B1H       0.162000
     29 H4          -1.6870     0.0050     6.0510 ha         1 B1H       0.139500
     30 H5          -1.5740     0.0070     3.6070 ha         1 B1H       0.162000
     31 H6          -0.2740    -0.0850    -2.1130 h1         1 B1H       0.025700
     32 H7          -2.4460    -1.1010    -0.2450 h1         1 B1H       0.037700
     33 H8          -1.5680    -3.0330    -0.6170 ho         1 B1H       0.410000
     34 H9          -2.2080    -1.2400    -3.2740 h1         1 B1H       0.029700
     35 H10         -3.6740    -2.7440    -3.0240 ho         1 B1H       0.408000
     36 H11         -4.1270     0.3210    -1.5050 h1         1 B1H       0.024700
     37 H12         -5.2280     0.1390    -3.3280 ho         1 B1H       0.406000
     38 H13         -1.8790     1.2740    -3.3150 h1         1 B1H       0.034700
     39 H14         -3.8980     2.7590    -3.1880 h1         1 B1H       0.003200
     40 H15         -3.7050     2.8120    -1.4310 h1         1 B1H       0.003200
     41 H16         -2.6660     4.5840    -2.5380 ho         1 B1H       0.398000
     42 H17         -0.5450    -0.0640     9.1460 ho         1 B1H       0.515000
@<TRIPOS>BOND
     1     1     4 1   
     2     1    14 2   
     3     1    15 1   
     4     2     3 2   
     5     2     6 1   
     6     2    14 1   
     7     3     8 1   
     8     3    13 1   
     9     4     6 2   
    10     4    26 1   
    11     5     7 1   
    12     5     8 2   
    13     5    27 1   
    14     7    10 2   
    15     7    12 1   
    16     8    28 1   
    17     9    10 1   
    18     9    42 1   
    19    10    11 1   
    20    12    13 2   
    21    12    29 1   
    22    13    30 1   
    23    15    16 1   
    24    15    17 1   
    25    15    31 1   
    26    16    23 1   
    27    17    18 1   
    28    17    19 1   
    29    17    32 1   
    30    18    33 1   
    31    19    20 1   
    32    19    21 1   
    33    19    34 1   
    34    20    35 1   
    35    21    22 1   
    36    21    23 1   
    37    21    36 1   
    38    22    37 1   
    39    23    24 1   
    40    23    38 1   
    41    24    25 1   
    42    24    39 1   
    43    24    40 1   
    44    25    41 1   
@<TRIPOS>SUBSTRUCTURE
     1 B1H         1 TEMP              0 ****  ****    0 ROOT
