@<TRIPOS>MOLECULE
molecule
   42    44     1     0     0
SMALL
bcc


@<TRIPOS>ATOM
      1 C1           0.0000     0.0000     0.0000 cc         1 B1H       0.506800
      2 C4           0.6440    -0.0010     2.0670 cd         1 B1H       0.452000
      3 C6           0.5800    -0.0010     3.5470 cc         1 B1H       0.194000
      4 N2           1.3460     0.0000     0.0000 na         1 B1H      -0.129400
      5 C8           1.7070     0.0000     5.6570 cd         1 B1H      -0.006500
      6 N3           1.7460     0.0000     1.3470 nd         1 B1H      -0.487800
      7 C9           0.4610    -0.0010     6.3110 cd         1 B1H      -0.125300
      8 C7           1.7620     0.0000     4.2950 cc         1 B1H      -0.128000
      9 O13         -0.6770    -0.0080     8.2140 oh         1 B1H      -0.361200
     10 N12          0.4030    -0.0070     7.6510 nh         1 B1H       0.356500
     11 O14          1.4310    -0.0110     8.3050 o          1 B1H      -0.102000
     12 C10         -0.7250     0.0040     5.5530 cd         1 B1H      -0.006500
     13 C11         -0.6610     0.0040     4.1910 cc         1 B1H      -0.128000
     14 N5          -0.4110    -0.0010     1.2400 nd         1 B1H      -0.734000
     15 C1'         -0.8830     0.0050    -1.2220 c3         1 B1H       0.124800
     16 O5'         -1.6190     1.2290    -1.2720 os         1 B1H      -0.388600
     17 C2'         -1.8580    -1.1730    -1.1520 c3         1 B1H       0.109100
     18 O2'         -1.1260    -2.4000    -1.1580 oh         1 B1H      -0.605800
     19 C3'         -2.7900    -1.1260    -2.3680 c3         1 B1H       0.107100
     20 O3'         -3.7520    -2.1780    -2.2730 oh         1 B1H      -0.602800
     21 C4'         -3.5120     0.2260    -2.3910 c3         1 B1H       0.105100
     22 O4'         -4.3300     0.3100    -3.5600 oh         1 B1H      -0.593800
     23 C5'         -2.4720     1.3500    -2.4120 c3         1 B1H       0.144100
     24 C6'         -3.1850     2.7030    -2.3750 c3         1 B1H       0.153400
     25 O6'         -2.2230     3.7520    -2.5120 oh         1 B1H      -0.604800
     26 H1           1.9440     0.0010    -0.8020 hn         1 B1H       0.357700
     27 H2           2.6230     0.0010     6.2360 ha         1 B1H       0.184000
     28 H3           2.7210     0.0010     3.7920 ha         1 B1H       0.202000
     29 H4          -1.6870     0.0050     6.0510 ha         1 B1H       0.184000
     30 H5          -1.5740     0.0070     3.6070 ha         1 B1H       0.202000
     31 H6          -0.2740    -0.0850    -2.1130 h1         1 B1H       0.068700
     32 H7          -2.4460    -1.1010    -0.2450 h1         1 B1H       0.073700
     33 H8          -1.5680    -3.0330    -0.6170 ho         1 B1H       0.425000
     34 H9          -2.2080    -1.2400    -3.2740 h1         1 B1H       0.065700
     35 H10         -3.6740    -2.7440    -3.0240 ho         1 B1H       0.423000
     36 H11         -4.1270     0.3210    -1.5050 h1         1 B1H       0.058700
     37 H12         -5.2280     0.1390    -3.3280 ho         1 B1H       0.421000
     38 H13         -1.8790     1.2740    -3.3150 h1         1 B1H       0.070700
     39 H14         -3.8980     2.7590    -3.1880 h1         1 B1H       0.043700
     40 H15         -3.7050     2.8120    -1.4310 h1         1 B1H       0.043700
     41 H16         -2.6660     4.5840    -2.5380 ho         1 B1H       0.413000
     42 H17         -0.5450    -0.0640     9.1460 ho         1 B1H       0.516000
@<TRIPOS>BOND
     1    20    19 1
     2    22    21 1
     3    19    21 1
     4    19    17 1
     5    21    23 1
     6    18    17 1
     7    17    15 1
     8    25    24 1
     9    23    24 1
    10    23    16 1
    11    15    16 1
    12    15     1 1
    13     4     1 1
    14     4     6 2
    15     1    14 2
    16     6     2 1
    17    14     2 1
    18     2     3 2
    19     3     8 1
    20     3    13 1
    21     8     5 2
    22    13    12 2
    23     5     7 1
    24    12     7 1
    25     7    10 2
    26    10     9 1
    27    10    11 1
    28     4    26 1
    29     5    27 1
    30     8    28 1
    31    12    29 1
    32    13    30 1
    33    15    31 1
    34    17    32 1
    35    18    33 1
    36    19    34 1
    37    20    35 1
    38    21    36 1
    39    22    37 1
    40    23    38 1
    41    24    39 1
    42    24    40 1
    43    25    41 1
    44     9    42 1
@<TRIPOS>SUBSTRUCTURE
     1 B1H         1 TEMP              0 ****  ****    0 ROOT
