@<TRIPOS>MOLECULE
molecule
   22    23     1     0     0
SMALL
bcc


@<TRIPOS>ATOM
      1 N1           0.0000     0.0000     0.0000 na         1 B1J       0.201300
      2 N3           1.2880     0.0000     0.0000 nc         1 B1J      -0.197800
      3 C4          -1.0700    -0.0090    -3.5210 ca         1 B1J      -0.107000
      4 C5          -0.2570    -0.0040    -2.4040 ca         1 B1J      -0.118000
      5 C6          -0.8220    -0.0050    -1.1360 ca         1 B1J       0.008800
      6 C7          -0.4230    -0.0010     1.2940 cc         1 B1J      -0.253600
      7 C8           0.6970    -0.0010     2.0540 cd         1 B1J       0.276600
      8 C1          -2.2030    -0.0120    -0.9940 ca         1 B1J      -0.118000
      9 C2          -3.0120    -0.0170    -2.1140 ca         1 B1J      -0.107000
     10 C3          -2.4460    -0.0110    -3.3780 ca         1 B1J       0.026400
     11 N2           1.7320     0.0000     1.2070 nd         1 B1J      -0.354000
     12 C9           0.7630    -0.0010     3.5590 c3         1 B1J       0.131100
     13 O1          -0.5620    -0.0010     4.0960 oh         1 B1J      -0.618800
     14 Cl1         -3.4640    -0.0180    -4.7830 cl         1 B1J      -0.095400
     15 H2           0.8200    -0.0020    -2.5180 ha         1 B1J       0.159000
     16 H3          -1.4490    -0.0020     1.6440 h4         1 B1J       0.198000
     17 H4          -2.6470    -0.0160    -0.0050 ha         1 B1J       0.159000
     18 H5          -4.0900    -0.0210    -2.0040 ha         1 B1J       0.154500
     19 H6           1.2900    -0.8860     3.8970 h1         1 B1J       0.043700
     20 H7           1.2900     0.8830     3.8970 h1         1 B1J       0.043700
     21 H8          -0.5190    -0.0010     5.0380 ho         1 B1J       0.413000
     22 H1          -0.6290    -0.0060    -4.5110 ha         1 B1J       0.154500
@<TRIPOS>BOND
     1     9     8 ar
     2     9    10 ar
     3    14    10 1
     4     8     5 ar
     5    10     3 ar
     6     2     1 1
     7     2    11 2
     8     5     1 1
     9     5     4 ar
    10     3     4 ar
    11     1     6 1
    12    11     7 1
    13     6     7 2
    14     7    12 1
    15    13    12 1
    16     3    22 1
    17     4    15 1
    18     6    16 1
    19     8    17 1
    20     9    18 1
    21    12    19 1
    22    12    20 1
    23    13    21 1
@<TRIPOS>SUBSTRUCTURE
     1 B1J         1 TEMP              0 ****  ****    0 ROOT
