@<TRIPOS>MOLECULE
molecule
   43    45     1     0     0
SMALL
bcc


@<TRIPOS>ATOM
      1 C1           0.0000     0.0000     0.0000 cc         1 B1K       0.590300
      2 C4           0.5870    -0.0010     2.0850 cd         1 B1K       0.521000
      3 C6           0.5150    -0.0010     3.5620 ca         1 B1K      -0.175500
      4 C7           1.6860    -0.0000     4.3210 ca         1 B1K      -0.058500
      5 N3           1.7190     0.0000     1.3430 na         1 B1K      -0.176400
      6 N2           1.3080     0.0000     0.0000 nd         1 B1K      -0.524800
      7 C13          1.5500    -0.0060     8.3970 c3         1 B1K       0.127700
      8 C9           0.3770    -0.0010     6.3300 ca         1 B1K       0.159100
      9 C10         -0.7900     0.0050     5.5770 ca         1 B1K      -0.195000
     10 C11         -0.7260     0.0040     4.2010 ca         1 B1K      -0.058500
     11 C8           1.6130    -0.0000     5.6970 ca         1 B1K      -0.195000
     12 N5          -0.4370    -0.0000     1.2560 nc         1 B1K      -0.744000
     13 C1'         -0.8730     0.0060    -1.2280 c3         1 B1K       0.143800
     14 O5'         -0.3760    -0.9470    -2.1710 os         1 B1K      -0.388600
     15 C5'         -1.1510    -1.0410    -3.3680 c3         1 B1K       0.147100
     16 C6'         -0.5450    -2.1060    -4.2840 c3         1 B1K       0.152400
     17 O6'         -0.6540    -3.3880    -3.6620 oh         1 B1K      -0.598800
     18 C4'         -1.1460     0.3120    -4.0850 c3         1 B1K       0.103100
     19 O4'         -1.9660     0.2360    -5.2520 oh         1 B1K      -0.602800
     20 C3'         -1.6980     1.3840    -3.1390 c3         1 B1K       0.106100
     21 O3'         -1.6290     2.6620    -3.7740 oh         1 B1K      -0.607800
     22 C2'         -0.8580     1.4010    -1.8590 c3         1 B1K       0.108100
     23 O2'         -1.4060     2.3470    -0.9390 oh         1 B1K      -0.590800
     24 H1           2.6510     0.0000     3.8280 ha         1 B1K       0.144500
     25 H2           2.6600    -0.0000     1.6830 hn         1 B1K       0.329700
     26 H3           1.3550    -0.0090     9.4630 h1         1 B1K       0.043700
     27 H4           2.1150    -0.8910     8.1310 h1         1 B1K       0.043700
     28 H5           2.1190     0.8780     8.1370 h1         1 B1K       0.043700
     29 H6          -1.7530     0.0090     6.0730 ha         1 B1K       0.145500
     30 H7          -1.6370     0.0080     3.6150 ha         1 B1K       0.144500
     31 H8           2.5220     0.0010     6.2860 ha         1 B1K       0.145500
     32 H9          -1.8890    -0.2530    -0.9560 h1         1 B1K       0.079700
     33 H10         -2.1690    -1.3100    -3.1160 h1         1 B1K       0.065700
     34 H11          0.4990    -1.8790    -4.4620 h1         1 B1K       0.035700
     35 H12         -1.0780    -2.1170    -5.2280 h1         1 B1K       0.035700
     36 H13         -0.3260    -4.0510    -4.2470 ho         1 B1K       0.403000
     37 H14         -0.1310     0.5670    -4.3650 h1         1 B1K       0.057700
     38 H15         -1.5370     0.6760    -5.9670 ho         1 B1K       0.413000
     39 H16         -2.7270     1.1510    -2.8910 h1         1 B1K       0.061700
     40 H17         -2.4970     3.0230    -3.8490 ho         1 B1K       0.414000
     41 H18          0.1620     1.6750    -2.1020 h1         1 B1K       0.064700
     42 H19         -0.9150     3.1500    -0.9840 ho         1 B1K       0.413000
     43 O12          0.3100    -0.0010     7.6860 os         1 B1K      -0.323900
@<TRIPOS>BOND
     1    21    20 1
     2    19    18 1
     3    20    18 1
     4    20    22 1
     5    18    15 1
     6    23    22 1
     7    22    13 1
     8    17    16 1
     9    15    16 1
    10    15    14 1
    11    13    14 1
    12    13     1 1
    13     6     1 2
    14     6     5 1
    15     1    12 1
    16     5     2 1
    17    12     2 2
    18     2     3 1
    19     3     4 ar
    20     3    10 ar
    21     4    11 ar
    22    10     9 ar
    23    11     8 ar
    24     9     8 ar
    25     8    43 1
    26    43     7 1
    27     4    24 1
    28     5    25 1
    29     7    26 1
    30     7    27 1
    31     7    28 1
    32     9    29 1
    33    10    30 1
    34    11    31 1
    35    13    32 1
    36    15    33 1
    37    16    34 1
    38    16    35 1
    39    17    36 1
    40    18    37 1
    41    19    38 1
    42    20    39 1
    43    21    40 1
    44    22    41 1
    45    23    42 1
@<TRIPOS>SUBSTRUCTURE
     1 B1K         1 TEMP              0 ****  ****    0 ROOT
