@<TRIPOS>MOLECULE
molecule
   49    51     1     0     0
SMALL
bcc


@<TRIPOS>ATOM
      1 O1           0.0000     0.0000     0.0000 oh         1 B1L      -0.521100
      2 C1           1.3570     0.0000     0.0000 ca         1 B1L       0.128100
      3 C2           2.0500     0.0000     1.2050 ca         1 B1L      -0.165000
      4 C3           3.4270    -0.0010     1.2080 ca         1 B1L      -0.073500
      5 C4           4.1280    -0.0030    -0.0010 ca         1 B1L      -0.157600
      6 C5           3.4280    -0.0030    -1.2090 ca         1 B1L      -0.073500
      7 C6           2.0510    -0.0070    -1.2050 ca         1 B1L      -0.165000
      8 C7           5.6030    -0.0040    -0.0000 c          1 B1L       0.674700
      9 O7           6.2120    -0.0030     1.0520 o          1 B1L      -0.605100
     10 N8           6.2770    -0.0060    -1.1670 ns         1 B1L      -0.569900
     11 C8           7.7420    -0.0050    -1.1670 c3         1 B1L       0.118700
     12 C9           8.2450    -0.7140    -2.3990 c3         1 B1L       0.144100
     13 C10          9.5690    -1.4590    -2.1380 c3         1 B1L      -0.098400
     14 C11         10.5210    -0.6280    -1.2520 c3         1 B1L      -0.081400
     15 C12         10.4890     0.8300    -1.6380 c3         1 B1L       0.144800
     16 N13          9.5740     1.5420    -0.7270 n7         1 B1L      -0.810200
     17 C14          8.2580     1.4450    -1.1720 c3         1 B1L       0.151800
     18 O9           7.2440    -1.6680    -2.8370 os         1 B1L      -0.433900
     19 C15          7.0970    -1.9360    -4.1490 c          1 B1L       0.651700
     20 O15          7.8020    -1.3780    -4.9650 o          1 B1L      -0.553000
     21 C16          6.0800    -2.9070    -4.5940 ca         1 B1L      -0.149600
     22 C17          5.2700    -3.5540    -3.6560 ca         1 B1L      -0.059000
     23 C18          4.3190    -4.4550    -4.0770 ca         1 B1L      -0.171500
     24 C19          4.1690    -4.7290    -5.4320 ca         1 B1L       0.139100
     25 C20          4.9750    -4.0920    -6.3670 ca         1 B1L      -0.171500
     26 C21          5.9260    -3.1860    -5.9550 ca         1 B1L      -0.059000
     27 O19          3.2330    -5.6230    -5.8420 oh         1 B1L      -0.521100
     28 HO1         -0.3140     0.8890    -0.0030 ho         1 B1L       0.424000
     29 H2           1.5060     0.0010     2.1420 ha         1 B1L       0.145500
     30 H3           3.9670    -0.0010     2.1480 ha         1 B1L       0.145500
     31 H5           3.9670    -0.0070    -2.1490 ha         1 B1L       0.145500
     32 H6           1.5070    -0.0080    -2.1420 ha         1 B1L       0.145500
     33 HN8          5.7770     0.0320    -2.0330 hn         1 B1L       0.318500
     34 H8           8.1090    -0.5150    -0.2850 h1         1 B1L       0.110700
     35 H9           8.4050     0.0180    -3.1820 h1         1 B1L       0.066700
     36 H101         9.3530    -2.3970    -1.6410 hc         1 B1L       0.057700
     37 H102        10.0530    -1.6580    -3.0860 hc         1 B1L       0.057700
     38 H111        10.2180    -0.7280    -0.2170 hc         1 B1L       0.060200
     39 H112        11.5310    -1.0040    -1.3690 hc         1 B1L       0.060200
     40 H121        11.4850     1.2490    -1.5520 h1         1 B1L       0.038200
     41 H122        10.1350     0.9270    -2.6570 h1         1 B1L       0.038200
     42 H13          9.8390     2.5060    -0.6750 hn         1 B1L       0.364800
     43 H141         7.6260     2.0420    -0.5250 h1         1 B1L       0.034200
     44 H142         8.2020     1.8330    -2.1810 h1         1 B1L       0.034200
     45 H17          5.3870    -3.3410    -2.6000 ha         1 B1L       0.157500
     46 H18          3.6900    -4.9560    -3.3510 ha         1 B1L       0.149000
     47 H20          4.8550    -4.3090    -7.4210 ha         1 B1L       0.149000
     48 H21          6.5540    -2.6900    -6.6850 ha         1 B1L       0.157500
     49 H19          3.6130    -6.4850    -5.8700 ho         1 B1L       0.427000
@<TRIPOS>BOND
     1     1     2 1
     2     1    28 1
     3     2     3 ar
     4     2     7 ar
     5     3     4 ar
     6     3    29 1
     7     4     5 ar
     8     4    30 1
     9     5     6 ar
    10     5     8 1
    11     6     7 ar
    12     6    31 1
    13     7    32 1
    14     8     9 2
    15     8    10 1
    16    10    11 1
    17    10    33 1
    18    11    12 1
    19    11    17 1
    20    11    34 1
    21    12    13 1
    22    12    18 1
    23    12    35 1
    24    13    14 1
    25    13    36 1
    26    13    37 1
    27    14    15 1
    28    14    38 1
    29    14    39 1
    30    15    16 1
    31    15    40 1
    32    15    41 1
    33    16    17 1
    34    16    42 1
    35    17    43 1
    36    17    44 1
    37    18    19 1
    38    19    20 2
    39    19    21 1
    40    21    22 ar
    41    21    26 ar
    42    22    23 ar
    43    22    45 1
    44    23    24 ar
    45    23    46 1
    46    24    25 ar
    47    24    27 1
    48    25    26 ar
    49    25    47 1
    50    26    48 1
    51    27    49 1
@<TRIPOS>SUBSTRUCTURE
     1 B1L         1 TEMP              0 ****  ****    0 ROOT
