@<TRIPOS>MOLECULE
molecule
   40    42     1     0     0
SMALL
bcc


@<TRIPOS>ATOM
      1 O5'          0.0000     0.0000     0.0000 os         1 B1N      -0.381600
      2 C5'          1.4290     0.0000     0.0000 c3         1 B1N       0.145100
      3 C4'          1.9380     0.0000     1.4440 c3         1 B1N       0.103100
      4 O4'          3.3670     0.0580     1.4460 oh         1 B1N      -0.602800
      5 C3'          1.3750     1.2210     2.1760 c3         1 B1N       0.105100
      6 O3'          1.7860     1.1900     3.5440 oh         1 B1N      -0.604800
      7 C2'         -0.1550     1.1880     2.0990 c3         1 B1N       0.111100
      8 O2'         -0.6900     2.3600     2.7160 oh         1 B1N      -0.603800
      9 C1'         -0.5830     1.1420     0.6310 c3         1 B1N       0.129800
     10 C8          -7.6250    -0.8780     1.3810 ca         1 B1N      -0.163500
     11 C6          -5.2630    -0.4540     1.3100 ca         1 B1N      -0.121500
     12 N2          -2.8910     1.8860    -0.1320 na         1 B1N      -0.160400
     13 N3          -4.2030     1.4260     0.0670 nc         1 B1N      -0.533800
     14 C4          -4.1190     0.3640     0.8360 cd         1 B1N       0.633500
     15 C11         -5.0390    -1.5600     2.1260 ca         1 B1N      -0.081500
     16 C10         -6.1060    -2.3150     2.5700 ca         1 B1N      -0.163500
     17 C9          -7.4000    -1.9800     2.1930 ca         1 B1N       0.116100
     18 O12         -8.4460    -2.7310     2.6230 oh         1 B1N      -0.523100
     19 C7          -6.5640    -0.1160     0.9380 ca         1 B1N      -0.081500
     20 N5          -2.8290     0.1420     1.1240 nd         1 B1N      -0.747000
     21 C1          -2.0850     1.0490     0.5470 cc         1 B1N       0.472800
     22 C6'          1.9400    -1.2480    -0.7210 c3         1 B1N       0.153400
     23 O6'          1.5610    -1.1910    -2.0980 oh         1 B1N      -0.600800
     24 H1           1.7880     0.8880    -0.5070 h1         1 B1N       0.062700
     25 H2           1.6070    -0.9030     1.9430 h1         1 B1N       0.061700
     26 H3           3.7040    -0.5220     2.1090 ho         1 B1N       0.415000
     27 H4           1.7400     2.1250     1.7040 h1         1 B1N       0.058700
     28 H5           2.2940     1.9610     3.7370 ho         1 B1N       0.415000
     29 H6          -0.5220     0.3050     2.6090 h1         1 B1N       0.080700
     30 H7          -0.9380     2.1630     3.6040 ho         1 B1N       0.422000
     31 H8          -0.2440     2.0410     0.1300 h1         1 B1N       0.055700
     32 H10         -2.6100     2.6800    -0.6730 hn         1 B1N       0.333700
     33 H11         -4.0300    -1.8220     2.4200 ha         1 B1N       0.153000
     34 H12         -5.9320    -3.1760     3.2050 ha         1 B1N       0.143000
     35 H13         -8.7700    -2.3830     3.4380 ho         1 B1N       0.420000
     36 H14         -6.7400     0.7440     0.3040 ha         1 B1N       0.153000
     37 H15          1.5090    -2.1310    -0.2650 h1         1 B1N       0.039200
     38 H16          3.0190    -1.2930    -0.6460 h1         1 B1N       0.039200
     39 H17          1.9470    -1.9170    -2.5610 ho         1 B1N       0.406000
     40 H9          -8.6360    -0.6170     1.0910 ha         1 B1N       0.143000
@<TRIPOS>BOND
     1     6     5 1
     2     4     3 1
     3     5     3 1
     4     5     7 1
     5     3     2 1
     6     8     7 1
     7     7     9 1
     8    23    22 1
     9     2    22 1
    10     2     1 1
    11     9     1 1
    12     9    21 1
    13    12    21 1
    14    12    13 1
    15    21    20 2
    16    13    14 2
    17    20    14 1
    18    14    11 1
    19    11    19 ar
    20    11    15 ar
    21    19    10 ar
    22    15    16 ar
    23    10    17 ar
    24    16    17 ar
    25    17    18 1
    26     2    24 1
    27     3    25 1
    28     4    26 1
    29     5    27 1
    30     6    28 1
    31     7    29 1
    32     8    30 1
    33     9    31 1
    34    10    40 1
    35    12    32 1
    36    15    33 1
    37    16    34 1
    38    18    35 1
    39    19    36 1
    40    22    37 1
    41    22    38 1
    42    23    39 1
@<TRIPOS>SUBSTRUCTURE
     1 B1N         1 TEMP              0 ****  ****    0 ROOT
