@<TRIPOS>MOLECULE
B1Q
   56    60     1     0     0
SMALL
bcc


@<TRIPOS>ATOM
      1 N1           0.0000     0.0000     0.0000 n          1 B1Q      -0.095000
      2 C2          -0.8280    -0.0020    -1.2090 c3         1 B1Q      -0.010000
      3 N3          -1.3310     1.2270    -3.2640 n3         1 B1Q      -0.105000
      4 C4          -1.0100     0.0630    -4.0960 c3         1 B1Q       0.029000
      5 C5           1.3440     0.0000     0.0000 c2         1 B1Q       0.240000
      6 C6          -1.7810     0.1020    -5.3870 ca         1 B1Q      -0.203000
      7 C7          -0.5190     1.2450    -2.0410 c3         1 B1Q      -0.100000
      8 C8          -1.3390    -1.2190    -3.3290 c3         1 B1Q      -0.121000
      9 C9          -0.5200    -1.2540    -2.0350 c3         1 B1Q      -0.306000
     10 C10         -2.3780     1.2600    -5.8410 ca         1 B1Q       0.007000
     11 C11         -1.8860    -1.0660    -6.1290 ca         1 B1Q      -0.202000
     12 C12         -2.5820    -1.0770    -7.3240 ca         1 B1Q       0.108000
     13 C13         -0.5330     0.0090     1.3680 c3         1 B1Q      -0.051000
     14 C14         -3.0750     1.2540    -7.0410 ca         1 B1Q      -0.174000
     15 C15         -3.1810     0.0930    -7.7850 ca         1 B1Q       0.113000
     16 C16          1.8650     0.0000     1.4210 c3         1 B1Q      -0.127000
     17 C17         -1.1730     2.4690    -4.0320 DU         1 B1Q      -0.114000
     18 C18          0.6450    -0.4210     2.2710 c3         1 B1Q      -0.138000
     19 O19          2.0380    -0.0000    -0.9950 o          1 B1Q      -0.366000
     20 C20         -2.2960     2.5490    -5.0660 c3         1 B1Q      -0.341000
     21 N21         -0.8750    -2.4510    -1.2620 nz         1 B1Q       0.831000
     22 O22         -2.6810    -2.2250    -8.0470 os         1 B1Q      -0.165000
     23 O23         -3.8650     0.0930    -8.9600 os         1 B1Q      -0.167000
     24 C25          0.6330    -1.9330     2.5040 c3         1 B1Q       0.085000
     25 C26         -4.4520     1.3310    -9.3680 c3         1 B1Q       0.045000
     26 C27         -2.0410    -3.3850    -7.5120 c3         1 B1Q       0.063000
     27 H2          -1.8730    -0.0050    -0.9250 h1         1 B1Q       0.100000
     28 H4           0.0720     0.0510    -4.1450 h1         1 B1Q       0.062000
     29 H7           0.3450     1.0210    -2.6550 h1         1 B1Q       0.097000
     30 H7A         -0.4890     2.1910    -1.5150 h1         1 B1Q       0.097000
     31 H8          -2.3950    -1.2380    -3.0890 hc         1 B1Q       0.093000
     32 H8A         -1.0870    -2.0770    -3.9410 hc         1 B1Q       0.093000
     33 H9           0.5400    -1.3300    -2.2460 hx         1 B1Q       0.159000
     34 H11         -1.0360    -1.5240    -5.6380 ha         1 B1Q       0.131000
     35 H13         -1.3630    -0.6800     1.4630 h1         1 B1Q       0.068500
     36 H13A        -0.8440     1.0130     1.6300 h1         1 B1Q       0.068500
     37 H14         -3.5410     2.1640    -7.4000 ha         1 B1Q       0.144000
     38 H16          2.1090     1.0230     1.6810 hc         1 B1Q       0.109500
     39 H16A         2.7180    -0.6540     1.5560 hc         1 B1Q       0.109500
     40 H17         -0.2430     2.3850    -4.5820 ha         1 B1Q       0.077500
     41 H17A        -1.1360     3.3460    -3.3960 ha         1 B1Q       0.077500
     42 H18          0.6230     0.1230     3.2080 hc         1 B1Q       0.121000
     43 H20         -1.9190     2.1680    -4.1240 DU         1 B1Q       0.291000
     44 H20A        -1.9040     3.3980    -5.6120 hc         1 B1Q       0.130000
     45 HN21        -0.1740    -3.1500    -1.4070 hn         1 B1Q       0.022333
     46 HN2A        -0.9050    -2.2070    -0.2920 hn         1 B1Q       0.022333
     47 H25          0.7330    -2.4810     1.5740 h1         1 B1Q       0.035500
     48 H25A        -0.3140    -2.1760     2.9700 h1         1 B1Q       0.035500
     49 H26         -4.8530     1.8380    -8.4990 h1         1 B1Q       0.044333
     50 H26A        -5.2510     1.1390   -10.0740 h1         1 B1Q       0.044333
     51 H26B        -3.7000     1.9560    -9.8330 h1         1 B1Q       0.044333
     52 H27         -0.9870    -3.1800    -7.3640 h1         1 B1Q       0.031333
     53 H27A        -2.4960    -3.6440    -6.5640 h1         1 B1Q       0.031333
     54 H27B        -2.1520    -4.2100    -8.2040 h1         1 B1Q       0.031333
     55 F24          1.6390    -2.2730     3.4140 f          1 B1Q      -0.132000
     56 H213        -1.7530    -2.8340    -1.5530 hn         1 B1Q       0.022333
@<TRIPOS>BOND
     1     1     2 1   
     2     1     5 1   
     3     1    13 1   
     4     2     7 1   
     5     2     9 1   
     6     2    27 1   
     7     3     4 1   
     8     3     7 1   
     9     3    17 1   
    10     4     6 1   
    11     4     8 1   
    12     4    28 1   
    13     5    16 1   
    14     5    19 1   
    15     6    10 1   
    16     6    11 1   
    17     7    29 1   
    18     7    30 1   
    19     8     9 1   
    20     8    31 1   
    21     8    32 1   
    22     9    21 1   
    23     9    33 1   
    24    10    14 1   
    25    10    20 1   
    26    11    12 1   
    27    11    34 1   
    28    12    15 1   
    29    12    22 1   
    30    13    18 1   
    31    13    35 1   
    32    13    36 1   
    33    14    15 1   
    34    14    37 1   
    35    15    23 1   
    36    16    18 1   
    37    16    38 1   
    38    16    39 1   
    39    17    20 1   
    40    17    40 1   
    41    17    41 1   
    42    17    43 1   
    43    18    24 1   
    44    18    42 1   
    45    20    43 1   
    46    20    44 1   
    47    21    45 1   
    48    21    46 1   
    49    21    56 1   
    50    22    26 1   
    51    23    25 1   
    52    24    47 1   
    53    24    48 1   
    54    24    55 1   
    55    25    49 1   
    56    25    50 1   
    57    25    51 1   
    58    26    52 1   
    59    26    53 1   
    60    26    54 1   
@<TRIPOS>SUBSTRUCTURE
     1 B1Q         1 TEMP              0 ****  ****    0 ROOT
