@<TRIPOS>MOLECULE
molecule
   25    26     1     0     0
SMALL
bcc


@<TRIPOS>ATOM
      1 OAA          0.0000     0.0000     0.0000 oh         1 B1T      -0.498600
      2 CAP          1.3600     0.0000     0.0000 ca         1 B1T       0.141100
      3 CAN          2.0540     0.0000     1.1990 ca         1 B1T      -0.000100
      4 ClAE         1.1880    -0.0020     2.7040 cl         1 B1T      -0.077900
      5 CAG          3.4380    -0.0010     1.1980 ca         1 B1T      -0.095000
      6 CAL          4.1320    -0.0000     0.0010 ca         1 B1T       0.024900
      7 ClAC         5.8680    -0.0010     0.0060 cl         1 B1T      -0.088900
      8 CAI          3.4470    -0.0000    -1.2000 ca         1 B1T      -0.087000
      9 CAR          2.0590    -0.0050    -1.2060 ca         1 B1T      -0.014100
     10 SAK          1.1820    -0.0110    -2.7340 ss         1 B1T      -0.120800
     11 CAS          0.6340    -1.6810    -2.8700 ca         1 B1T      -0.014100
     12 CAJ          1.0430    -2.6250    -1.9370 ca         1 B1T      -0.087000
     13 CAM          0.6120    -3.9340    -2.0460 ca         1 B1T       0.024900
     14 ClAD         1.1230    -5.1140    -0.8800 cl         1 B1T      -0.088900
     15 CAH         -0.2260    -4.3070    -3.0820 ca         1 B1T      -0.095000
     16 CAO         -0.6380    -3.3710    -4.0150 ca         1 B1T      -0.000100
     17 ClAF        -1.6890    -3.8430    -5.3130 cl         1 B1T      -0.077900
     18 CAQ         -0.2150    -2.0550    -3.9100 ca         1 B1T       0.141100
     19 OAB         -0.6230    -1.1320    -4.8210 oh         1 B1T      -0.498600
     20 HOAA        -0.3140     0.8680     0.1900 ho         1 B1T       0.432500
     21 HAG          3.9800    -0.0010     2.1360 ha         1 B1T       0.162500
     22 HAI          3.9930    -0.0010    -2.1350 ha         1 B1T       0.161000
     23 HAJ          1.7440    -2.3490    -1.1590 ha         1 B1T       0.161000
     24 HAH         -0.5610    -5.3340    -3.1630 ha         1 B1T       0.162500
     25 HOAB        -0.1010    -1.2100    -5.6030 ho         1 B1T       0.432500
@<TRIPOS>BOND
     1     1     2 1
     2     1    20 1
     3     9     2 ar
     4     2     3 ar
     5     3     5 ar
     6     3     4 1
     7     6     5 ar
     8     5    21 1
     9     8     6 ar
    10     6     7 1
    11     9     8 ar
    12     8    22 1
    13    10     9 1
    14    10    11 1
    15    12    11 ar
    16    11    18 ar
    17    12    13 ar
    18    12    23 1
    19    14    13 1
    20    13    15 ar
    21    15    16 ar
    22    15    24 1
    23    18    16 ar
    24    16    17 1
    25    18    19 1
    26    19    25 1
@<TRIPOS>SUBSTRUCTURE
     1 B1T         1 TEMP              0 ****  ****    0 ROOT
