@<TRIPOS>MOLECULE
B1T
   25    26     1     0     0
SMALL
bcc


@<TRIPOS>ATOM
      1 OAA         0.1730   -0.4290    0.0570 oh        1 B1T     -0.479600
      2 CAP         1.5120   -0.1440    0.0740 ca        1 B1T      0.160100
      3 CAN         2.2230    0.1310    1.2610 ca        1 B1T     -0.064100
      4 CLAE        1.4300    0.1400    2.7660 cl        1 B1T     -0.081400
      5 CAG         3.5890    0.4100    1.2160 ca        1 B1T     -0.073500
      6 CAL         4.2490    0.4010   -0.0160 ca        1 B1T     -0.010100
      7 CLAC        5.9120    0.7360   -0.0770 cl        1 B1T     -0.079900
      8 CAI         3.5550    0.1110   -1.1910 ca        1 B1T     -0.069500
      9 CAR         2.1800   -0.1490   -1.1690 ca        1 B1T     -0.060600
     10 SAK         1.4490   -0.2570   -2.7020 ss        1 B1T     -0.010800
     11 CAS         0.7160   -1.7800   -2.8340 ca        1 B1T     -0.060600
     12 CAJ         0.7480   -2.7630   -1.8440 ca        1 B1T     -0.069500
     13 CAM         0.1400   -4.0050   -2.0430 ca        1 B1T     -0.010100
     14 CLAD        0.2040   -5.1760   -0.8120 cl        1 B1T     -0.079900
     15 CAH        -0.5180   -4.2970   -3.2370 ca        1 B1T     -0.073500
     16 CAO        -0.5640   -3.3240   -4.2390 ca        1 B1T     -0.064100
     17 CLAF       -1.3710   -3.6840   -5.6940 cl        1 B1T     -0.081400
     18 CAQ         0.0440   -2.0720   -4.0480 ca        1 B1T      0.160100
     19 OAB         0.0360   -1.0780   -4.9950 oh        1 B1T     -0.479600
     20 HOAA       -0.1790   -0.3320    0.9580 ho        1 B1T      0.437000
     21 HAG         4.1400    0.6320    2.1450 ha        1 B1T      0.165000
     22 HAI         4.0870    0.0910   -2.1590 ha        1 B1T      0.162500
     23 HAJ         1.2500   -2.5480   -0.8850 ha        1 B1T      0.162500
     24 HAH        -0.9960   -5.2770   -3.3930 ha        1 B1T      0.165000
     25 HOAB       -0.4700   -1.3890   -5.7640 ho        1 B1T      0.437000
@<TRIPOS>BOND
     1    1    2 1   
     2    1   20 1   
     3    2    3 ar  
     4    2    9 ar  
     5    3    4 1   
     6    3    5 ar  
     7    5    6 ar  
     8    5   21 1   
     9    6    7 1   
    10    6    8 ar  
    11    8    9 ar  
    12    8   22 1   
    13    9   10 1   
    14   10   11 1   
    15   11   12 ar  
    16   11   18 ar  
    17   12   13 ar  
    18   12   23 1   
    19   13   14 1   
    20   13   15 ar  
    21   15   16 ar  
    22   15   24 1   
    23   16   17 1   
    24   16   18 ar  
    25   18   19 1   
    26   19   25 1   
@<TRIPOS>SUBSTRUCTURE
     1 B1T         1 TEMP              0 ****  ****    0 ROOT
