@<TRIPOS>MOLECULE
B1V
   35    36     1     0     0
SMALL
bcc


@<TRIPOS>ATOM
      1 F27          0.0000     0.0000     0.0000 f          1 B1V      -0.198300
      2 C24          1.3990     0.0000     0.0000 c3         1 B1V       0.540600
      3 F25          1.8660     0.0000     1.3170 f          1 B1V      -0.198300
      4 F26          1.8640     1.1430    -0.6590 f          1 B1V      -0.198300
      5 C9           1.9000    -1.2300    -0.7110 ca         1 B1V       0.330600
      6 N11          1.0470    -2.1060    -1.2170 nb         1 B1V      -0.542000
      7 C7           3.2580    -1.4550    -0.8440 ca         1 B1V      -0.335600
      8 C5           3.6800    -2.6060    -1.5080 ca         1 B1V       0.658600
      9 O13          5.0010    -2.8660    -1.6600 oh         1 B1V      -0.608300
     10 N3           2.7690    -3.4400    -1.9960 nb         1 B1V      -0.667000
     11 C1           1.4770    -3.1910    -1.8450 ca         1 B1V       0.744300
     12 S14          0.3010    -4.3260    -2.5010 ss         1 B1V      -0.283400
     13 C15          1.4190    -5.5590    -3.2130 c3         1 B1V      -0.008300
     14 C16          0.6110    -6.6610    -3.8500 c          1 B1V       0.603100
     15 O23         -0.6000    -6.6170    -3.8250 o          1 B1V      -0.623100
     16 N17          1.2360    -7.6950    -4.4480 n          1 B1V      -0.148800
     17 C18          2.7030    -7.7590    -4.4910 c3         1 B1V       0.046000
     18 C19          3.1490    -7.9450    -5.9400 c3         1 B1V      -0.041400
     19 C20          2.4490    -9.1670    -6.5360 c3         1 B1V      -0.026400
     20 C21          0.9340    -8.9480    -6.5190 c3         1 B1V      -0.041400
     21 C22          0.4630    -8.7770    -5.0730 c3         1 B1V       0.046000
     22 H7           3.9610    -0.6560    -0.6440 ha         1 B1V       0.147000
     23 H13          5.3100    -3.3650    -0.9220 ho         1 B1V       0.422000
     24 H151         2.0440    -5.0890    -3.9630 h1         1 B1V       0.063700
     25 H152         2.0440    -5.9740    -2.4320 h1         1 B1V       0.063700
     26 H181         3.0460    -8.5970    -3.8970 h1         1 B1V       0.031450
     27 H182         3.1170    -6.8370    -4.1010 h1         1 B1V       0.031450
     28 H191         4.2210    -8.0940    -5.9700 hc         1 B1V       0.023700
     29 H192         2.8860    -7.0640    -6.5130 hc         1 B1V       0.023700
     30 H201         2.7800    -9.3100    -7.5570 hc         1 B1V       0.017700
     31 H202         2.6910   -10.0440    -5.9470 hc         1 B1V       0.017700
     32 H211         0.4410    -9.8060    -6.9600 hc         1 B1V       0.023700
     33 H212         0.6940    -8.0560    -7.0850 hc         1 B1V       0.023700
     34 H221        -0.5900    -8.5220    -5.0630 h1         1 B1V       0.031450
     35 H222         0.6250    -9.6990    -4.5270 h1         1 B1V       0.031450
@<TRIPOS>BOND
     1     1     2 1   
     2     2     3 1   
     3     2     4 1   
     4     2     5 1   
     5     5     6 ar  
     6     5     7 ar  
     7     6    11 ar  
     8     7     8 ar  
     9     7    22 1   
    10     8     9 1   
    11     8    10 ar  
    12     9    23 1   
    13    10    11 ar  
    14    11    12 1   
    15    12    13 1   
    16    13    14 1   
    17    13    24 1   
    18    13    25 1   
    19    14    15 2   
    20    14    16 1   
    21    16    17 1   
    22    16    21 1   
    23    17    18 1   
    24    17    26 1   
    25    17    27 1   
    26    18    19 1   
    27    18    28 1   
    28    18    29 1   
    29    19    20 1   
    30    19    30 1   
    31    19    31 1   
    32    20    21 1   
    33    20    32 1   
    34    20    33 1   
    35    21    34 1   
    36    21    35 1   
@<TRIPOS>SUBSTRUCTURE
     1 B1V         1 TEMP              0 ****  ****    0 ROOT
