@<TRIPOS>MOLECULE
molecule
   41    43     1     0     0
SMALL
bcc


@<TRIPOS>ATOM
      1 C1           0.0000     0.0000     0.0000 cc         1 B1W       0.373800
      2 C4           1.7350     0.0000     1.3160 cc         1 B1W       0.427000
      3 C6           3.1180    -0.0000     1.8400 ca         1 B1W      -0.128500
      4 C10          5.4870     0.0050     1.4470 ca         1 B1W      -0.146000
      5 C11          4.1990     0.0060     0.9570 ca         1 B1W      -0.099000
      6 O4'         -4.3600     0.2870    -3.5240 oh         1 B1W      -0.603800
      7 C4'         -3.5320     0.2070    -2.3620 c3         1 B1W       0.103100
      8 C5'         -2.4980     1.3360    -2.3930 c3         1 B1W       0.145100
      9 C6'         -3.2150     2.6870    -2.3510 c3         1 B1W       0.152400
     10 O6'         -2.2600     3.7390    -2.4970 oh         1 B1W      -0.601800
     11 C3'         -2.8040    -1.1410    -2.3430 c3         1 B1W       0.106100
     12 O3'         -3.7600    -2.1980    -2.2400 oh         1 B1W      -0.603800
     13 C2'         -1.8610    -1.1820    -1.1370 c3         1 B1W       0.112100
     14 O2'         -1.1230    -2.4060    -1.1490 oh         1 B1W      -0.602800
     15 C1'         -0.8920    -0.0000    -1.2140 c3         1 B1W       0.139800
     16 O5'         -1.6340     1.2200    -1.2590 os         1 B1W      -0.384600
     17 N5           1.3620     0.0000     0.0000 na         1 B1W      -0.419700
     18 N3           0.6290     0.0080     2.0290 nd         1 B1W      -0.350000
     19 N2          -0.3900     0.0050     1.2460 nd         1 B1W      -0.337000
     20 C7           3.3450    -0.0000     3.2170 ca         1 B1W      -0.099000
     21 C8           4.6340    -0.0000     3.7010 ca         1 B1W      -0.146000
     22 C9           5.7100    -0.0000     2.8190 ca         1 B1W       0.177600
     23 N12          7.0150    -0.0010     3.3130 nv         1 B1W      -0.992200
     24 H1           6.3270     0.0070     0.7620 ha         1 B1W       0.140500
     25 H2           4.0260     0.0100    -0.1130 ha         1 B1W       0.139500
     26 H3          -5.2590     0.1370    -3.2800 ho         1 B1W       0.415000
     27 H4          -4.1410     0.3000    -1.4700 h1         1 B1W       0.062700
     28 H5          -1.9120     1.2620    -3.3000 h1         1 B1W       0.061700
     29 H6          -3.7280     2.7940    -1.4020 h1         1 B1W       0.038700
     30 H7          -3.9360     2.7380    -3.1580 h1         1 B1W       0.038700
     31 H8          -2.7080     4.5690    -2.5150 ho         1 B1W       0.405000
     32 H9          -2.2290    -1.2530    -3.2540 h1         1 B1W       0.057700
     33 H10         -3.6870    -2.7620    -2.9920 ho         1 B1W       0.414000
     34 H11         -2.4410    -1.1130    -0.2240 h1         1 B1W       0.080700
     35 H12         -1.5400    -3.0300    -0.5790 ho         1 B1W       0.421000
     36 H13         -0.2900    -0.0870    -2.1100 h1         1 B1W       0.052700
     37 H14          1.9500     0.2240    -0.7780 hn         1 B1W       0.310700
     38 H15          2.5080    -0.0000     3.9040 ha         1 B1W       0.139500
     39 H16          4.8110    -0.0020     4.7700 ha         1 B1W       0.140500
     40 H17          7.4830    -0.8680     3.4880 hn         1 B1W       0.429800
     41 H18          7.4830     0.8650     3.4920 hn         1 B1W       0.429800
@<TRIPOS>BOND
     1    12    11 1
     2     6     7 1
     3    11     7 1
     4    11    13 1
     5     7     8 1
     6    14    13 1
     7    13    15 1
     8    10     9 1
     9     8     9 1
    10     8    16 1
    11    15    16 1
    12    15     1 1
    13    19     1 2
    14    19    18 1
    15     1    17 1
    16    18     2 2
    17    17     2 1
    18     2     3 1
    19     3    20 ar
    20     3     5 ar
    21    20    21 ar
    22     5     4 ar
    23    21    22 ar
    24     4    22 ar
    25    22    23 1
    26     4    24 1
    27     5    25 1
    28     6    26 1
    29     7    27 1
    30     8    28 1
    31     9    29 1
    32     9    30 1
    33    10    31 1
    34    11    32 1
    35    12    33 1
    36    13    34 1
    37    14    35 1
    38    15    36 1
    39    17    37 1
    40    20    38 1
    41    21    39 1
    42    23    40 1
    43    23    41 1
@<TRIPOS>SUBSTRUCTURE
     1 B1W         1 TEMP              0 ****  ****    0 ROOT
