@<TRIPOS>MOLECULE
B1W
   41    43     1     0     0
SMALL
bcc


@<TRIPOS>ATOM
      1 C1           0.0000     0.0000     0.0000 cc         1 B1W       0.162800
      2 C4           1.7350     0.0000     1.3160 cc         1 B1W       0.234000
      3 C6           3.1180    -0.0000     1.8400 ca         1 B1W      -0.116500
      4 C10          5.4870     0.0050     1.4470 ca         1 B1W      -0.111500
      5 C11          4.1990     0.0060     0.9570 ca         1 B1W      -0.080000
      6 O4'         -4.3600     0.2870    -3.5240 oh         1 B1W      -0.583800
      7 C4'         -3.5320     0.2070    -2.3620 c3         1 B1W       0.140100
      8 C5'         -2.4980     1.3360    -2.3930 c3         1 B1W       0.163100
      9 C6'         -3.2150     2.6870    -2.3510 c3         1 B1W       0.225400
     10 O6'         -2.2600     3.7390    -2.4970 oh         1 B1W      -0.585800
     11 C3'         -2.8040    -1.1410    -2.3430 c3         1 B1W       0.142100
     12 O3'         -3.7600    -2.1980    -2.2400 oh         1 B1W      -0.585800
     13 C2'         -1.8610    -1.1820    -1.1370 c3         1 B1W       0.141100
     14 O2'         -1.1230    -2.4060    -1.1490 oh         1 B1W      -0.589800
     15 C1'         -0.8920    -0.0000    -1.2140 c3         1 B1W       0.183800
     16 O5'         -1.6340     1.2200    -1.2590 os         1 B1W      -0.371600
     17 N5           1.3620     0.0000     0.0000 na         1 B1W       0.116300
     18 N3           0.6290     0.0080     2.0290 nd         1 B1W      -0.327000
     19 N2          -0.3900     0.0050     1.2460 nd         1 B1W      -0.306000
     20 C7           3.3450    -0.0000     3.2170 ca         1 B1W      -0.080000
     21 C8           4.6340    -0.0000     3.7010 ca         1 B1W      -0.111500
     22 C9           5.7100    -0.0000     2.8190 ca         1 B1W       0.038600
     23 N12          7.0150    -0.0010     3.3130 nv         1 B1W      -0.562200
     24 H1           6.3270     0.0070     0.7620 ha         1 B1W       0.110500
     25 H2           4.0260     0.0100    -0.1130 ha         1 B1W       0.111000
     26 H3          -5.2590     0.1370    -3.2800 ho         1 B1W       0.400000
     27 H4          -4.1410     0.3000    -1.4700 h1         1 B1W       0.027700
     28 H5          -1.9120     1.2620    -3.3000 h1         1 B1W       0.026700
     29 H6          -3.7280     2.7940    -1.4020 h1         1 B1W       0.000200
     30 H7          -3.9360     2.7380    -3.1580 h1         1 B1W       0.000200
     31 H8          -2.7080     4.5690    -2.5150 ho         1 B1W       0.390000
     32 H9          -2.2290    -1.2530    -3.2540 h1         1 B1W       0.021700
     33 H10         -3.6870    -2.7620    -2.9920 ho         1 B1W       0.400000
     34 H11         -2.4410    -1.1130    -0.2240 h1         1 B1W       0.046700
     35 H12         -1.5400    -3.0300    -0.5790 ho         1 B1W       0.407000
     36 H13         -0.2900    -0.0870    -2.1100 h1         1 B1W       0.010700
     37 H14          1.9500     0.2240    -0.7780 hn         1 B1W       0.139700
     38 H15          2.5080    -0.0000     3.9040 ha         1 B1W       0.111000
     39 H16          4.8110    -0.0020     4.7700 ha         1 B1W       0.110500
     40 H17          7.4830    -0.8680     3.4880 hn         1 B1W       0.274800
     41 H18          7.4830     0.8650     3.4920 hn         1 B1W       0.274800
@<TRIPOS>BOND
     1     1    15 1   
     2     1    17 1   
     3     1    19 2   
     4     2     3 1   
     5     2    17 1   
     6     2    18 2   
     7     3     5 ar  
     8     3    20 ar  
     9     4     5 ar  
    10     4    22 ar  
    11     4    24 1   
    12     5    25 1   
    13     6     7 1   
    14     6    26 1   
    15     7     8 1   
    16     7    11 1   
    17     7    27 1   
    18     8     9 1   
    19     8    16 1   
    20     8    28 1   
    21     9    10 1   
    22     9    29 1   
    23     9    30 1   
    24    10    31 1   
    25    11    12 1   
    26    11    13 1   
    27    11    32 1   
    28    12    33 1   
    29    13    14 1   
    30    13    15 1   
    31    13    34 1   
    32    14    35 1   
    33    15    16 1   
    34    15    36 1   
    35    17    37 1   
    36    18    19 1   
    37    20    21 ar  
    38    20    38 1   
    39    21    22 ar  
    40    21    39 1   
    41    22    23 1   
    42    23    40 1   
    43    23    41 1   
@<TRIPOS>SUBSTRUCTURE
     1 B1W         1 TEMP              0 ****  ****    0 ROOT
