@<TRIPOS>MOLECULE
B2
   28    30     1     0     0
SMALL
bcc


@<TRIPOS>ATOM
      1 C1           0.0000     0.0000     0.0000 ca         1 B2       -0.137000
      2 C2           1.3830     0.0000     0.0000 ca         1 B2        0.024000
      3 C3           2.0870     0.0000     1.1920 ca         1 B2       -0.136000
      4 C4           1.4180    -0.0000     2.4030 ca         1 B2        0.130900
      5 C4A          0.0240     0.0070     2.4150 ca         1 B2       -0.308900
      6 C5          -0.7450     0.0070     3.6750 ce         1 B2        0.263800
      7 N6          -2.0160    -0.2810     3.6570 n2         1 B2       -0.413900
      8 C7          -2.7100    -0.6490     2.4250 c3         1 B2        0.441000
      9 N8          -2.0750    -0.0070     1.2670 nu         1 B2       -0.411600
     10 C8A         -0.6830    -0.0010     1.2010 ca         1 B2        0.116600
     11 C9          -2.6590    -2.1450     2.2510 cc         1 B2       -0.107400
     12 C10         -2.6060    -3.1120     3.1990 cd         1 B2       -0.081000
     13 C11         -2.5690    -4.4370     2.8030 cd         1 B2       -0.164000
     14 C12         -2.5770    -4.7280     1.4800 cc         1 B2        0.117900
     15 S13         -2.6460    -3.1020     0.7450 ss         1 B2       -0.288800
     16 N14         -0.1210     0.3170     4.8650 nz         1 B2        0.180400
     17 F15          2.1090     0.0000     3.5630 f          1 B2       -0.133900
     18 H1          -0.5450     0.0000    -0.9360 ha         1 B2        0.138000
     19 H2           1.9200     0.0000    -0.9410 ha         1 B2        0.127000
     20 H3           3.1710    -0.0000     1.1770 ha         1 B2        0.142000
     21 H7          -3.7430    -0.3270     2.4880 h2         1 B2        0.086700
     22 HN8         -2.5080    -0.2720     0.4040 hn         1 B2        0.312800
     23 H10         -2.6000    -2.8520     4.2500 ha         1 B2        0.112000
     24 H11         -2.5280    -5.2300     3.5400 ha         1 B2        0.132000
     25 H12         -2.5510    -5.6950     0.9940 h4         1 B2        0.177000
     26 H141         0.5010    -0.4240     5.1180 hn         1 B2        0.226467
     27 H142         0.3970     1.1670     4.7580 hn         1 B2        0.226467
     28 H143        -0.8100     0.4340     5.5810 hn         1 B2        0.226467
@<TRIPOS>BOND
     1     1     2 ar  
     2     1    10 ar  
     3     1    18 1   
     4     2     3 ar  
     5     2    19 1   
     6     3     4 ar  
     7     3    20 1   
     8     4     5 ar  
     9     4    17 1   
    10     5     6 1   
    11     5    10 ar  
    12     6     7 2   
    13     6    16 1   
    14     7     8 1   
    15     8     9 1   
    16     8    11 1   
    17     8    21 1   
    18     9    10 1   
    19     9    22 1   
    20    11    12 2   
    21    11    15 1   
    22    12    13 1   
    23    12    23 1   
    24    13    14 2   
    25    13    24 1   
    26    14    15 1   
    27    14    25 1   
    28    16    26 1   
    29    16    27 1   
    30    16    28 1   
@<TRIPOS>SUBSTRUCTURE
     1 B2          1 TEMP              0 ****  ****    0 ROOT
