@<TRIPOS>MOLECULE
B21
   25    26     1     0     0
SMALL
bcc


@<TRIPOS>ATOM
      1 CAL         1.0800   -0.9170   -0.5080 c3        1 B21      0.116700
      2 OAP         1.1950    0.3250    0.1980 os        1 B21     -0.347900
      3 CAH         1.9090    0.2650    1.3820 ca        1 B21      0.120100
      4 CAK         1.1680    0.3520    2.5710 ca        1 B21     -0.151000
      5 CAI         1.8190    0.4420    3.7970 ca        1 B21     -0.143000
      6 CAJ         3.2130    0.4390    3.8440 ca        1 B21     -0.150000
      7 CAG         3.9520    0.3470    2.6700 ca        1 B21     -0.128000
      8 CAF         3.3220    0.2570    1.4150 ca        1 B21     -0.096500
      9 CAB         4.1450    0.1660    0.2400 cc        1 B21      0.220200
     10 OAM         3.5370   -0.2360   -0.9570 os        1 B21     -0.322800
     11 CAD         5.4990    0.3950    0.0100 cd        1 B21     -0.237300
     12 CAC         5.7390    0.1210   -1.3790 cd        1 B21     -0.308300
     13 CAA         4.5230   -0.2650   -1.9330 cc        1 B21      0.263200
     14 CAE         4.0820   -0.7110   -3.3180 c         1 B21      0.829100
     15 OAO         4.9590   -0.6850   -4.2200 o         1 B21     -0.804300
     16 OAN         2.8860   -1.0780   -3.4580 o         1 B21     -0.804300
     17 HAL1        1.3020   -0.6740   -1.5830 h1        1 B21      0.053367
     18 HAL2        0.0290   -1.2740   -0.3680 h1        1 B21      0.053367
     19 HAL3        1.8040   -1.6810   -0.1420 h1        1 B21      0.053367
     20 HAK         0.0700    0.3620    2.5140 ha        1 B21      0.134000
     21 HAI         1.2350    0.5140    4.7250 ha        1 B21      0.116000
     22 HAJ         3.7300    0.5090    4.8110 ha        1 B21      0.116000
     23 HAG         5.0520    0.3440    2.7130 ha        1 B21      0.130000
     24 HAD         6.2380    0.7220    0.7340 ha        1 B21      0.132000
     25 HAC         6.6860    0.2000   -1.9030 ha        1 B21      0.157000
@<TRIPOS>BOND
     1    1    2 1   
     2    1   17 1   
     3    1   18 1   
     4    1   19 1   
     5    2    3 1   
     6    3    4 ar  
     7    3    8 ar  
     8    4    5 ar  
     9    4   20 1   
    10    5    6 ar  
    11    5   21 1   
    12    6    7 ar  
    13    6   22 1   
    14    7    8 ar  
    15    7   23 1   
    16    8    9 1   
    17    9   10 1   
    18    9   11 2   
    19   10   13 1   
    20   11   12 1   
    21   11   24 1   
    22   12   13 2   
    23   12   25 1   
    24   13   14 1   
    25   14   15 1   
    26   14   16 1   
@<TRIPOS>SUBSTRUCTURE
     1 B21         1 TEMP              0 ****  ****    0 ROOT
