@<TRIPOS>MOLECULE
B23
   23    24     1     0     0
SMALL
bcc


@<TRIPOS>ATOM
      1 OAN        -0.0120    0.2910   -0.1960 o         1 B23     -0.787300
      2 CAE         1.1640   -0.1170   -0.0490 c         1 B23      0.830100
      3 OAO         1.6810   -0.5680    1.0050 o         1 B23     -0.787300
      4 CAA         2.1020   -0.0180   -1.2520 cc        1 B23      0.308200
      5 OAM         1.5920   -0.2450   -2.5160 os        1 B23     -0.310800
      6 CAC         3.4510    0.3380   -1.3400 cd        1 B23     -0.329300
      7 CAD         3.7870    0.3570   -2.7280 cd        1 B23     -0.195300
      8 CAB         2.6350   -0.0050   -3.4290 cc        1 B23      0.163200
      9 CAF         2.3760   -0.1030   -4.8330 ca        1 B23      0.009500
     10 CAG         3.1090    0.7470   -5.6940 ca        1 B23     -0.150000
     11 CAJ         2.8840    0.7640   -7.0600 ca        1 B23     -0.100000
     12 CAI         1.9030   -0.0600   -7.6220 ca        1 B23     -0.168000
     13 CAK         1.1770   -0.9190   -6.8100 ca        1 B23     -0.078000
     14 CAH         1.4340   -0.9680   -5.4270 ca        1 B23     -0.168200
     15 NAL         0.6900   -1.9940   -4.6420 no        1 B23      0.323200
     16 OAQ        -0.4730   -2.1710   -4.9040 o         1 B23     -0.203000
     17 OAP         1.2740   -2.6690   -3.8440 o         1 B23     -0.203000
     18 HAC         4.1110    0.5480   -0.5050 ha        1 B23      0.160000
     19 HAD         4.7570    0.5930   -3.1550 ha        1 B23      0.134000
     20 HAG         3.8610    1.4160   -5.2460 ha        1 B23      0.144000
     21 HAJ         3.4670    1.4370   -7.7050 ha        1 B23      0.127000
     22 HAI         1.7060   -0.0280   -8.7020 ha        1 B23      0.130000
     23 HAK         0.3970   -1.5670   -7.2450 ha        1 B23      0.152000
@<TRIPOS>BOND
     1    1    2 1
     2    2    3 1
     3    2    4 1
     4    4    5 1
     5    4    6 2
     6    5    8 1
     7    6    7 1
     8    6   18 1
     9    7    8 2
    10    7   19 1
    11    8    9 1
    12    9   10 ar
    13    9   14 ar
    14   10   11 ar
    15   10   20 1
    16   11   12 ar
    17   11   21 1
    18   12   13 ar
    19   12   22 1
    20   13   14 ar
    21   13   23 1
    22   14   15 1
    23   15   16 1
    24   15   17 1
@<TRIPOS>SUBSTRUCTURE
     1 B23         1 TEMP              0 ****  ****    0 ROOT
