@<TRIPOS>MOLECULE
B25
   24    25     1     0     0
SMALL
bcc


@<TRIPOS>ATOM
      1 C1           0.0000     0.0000     0.0000 ca         1 B25      -0.141200
      2 N1           2.1530    -0.0010     3.6750 no         1 B25       1.042200
      3 O1           1.5600    -0.0020     4.7380 o          1 B25      -0.431500
      4 C2           1.3920     0.0000     0.0000 ca         1 B25      -0.128000
      5 N2          -3.4370    -0.0200    -2.5950 nz         1 B25       0.123400
      6 O2           3.3710    -0.0010     3.6560 o          1 B25      -0.431500
      7 C3           2.0780     0.0000     1.1940 ca         1 B25       0.037000
      8 N3          -4.6110    -0.0180    -0.5890 n2         1 B25      -0.446100
      9 C4           1.3940     0.0000     2.4030 ca         1 B25      -0.460200
     10 N4          -0.9430    -0.0050    -1.0010 na         1 B25       0.329600
     11 C5           0.0300    -0.0010     2.4300 ca         1 B25       0.090000
     12 C6          -0.6890     0.0000     1.2290 ca         1 B25      -0.165800
     13 C7          -2.1120    -0.0010     0.9030 cc         1 B25       0.042800
     14 C8          -2.2070    -0.0100    -0.4510 cd         1 B25      -0.403700
     15 C9          -3.4670    -0.0160    -1.2160 cf         1 B25       0.258500
     16 H2           1.9340    -0.0000    -0.9380 ha         1 B25       0.121000
     17 H1N2        -2.9610     0.7980    -2.9210 hn         1 B25       0.225467
     18 H2N2        -2.9560    -0.8360    -2.9160 hn         1 B25       0.225467
     19 H3           3.1610    -0.0000     1.1900 ha         1 B25       0.146000
     20 H1N3        -5.4670    -0.0220    -1.1070 hn         1 B25       0.340400
     21 HN4         -0.7420    -0.0100    -1.9810 hn         1 B25       0.104700
     22 H5          -0.4930    -0.0910     3.3740 ha         1 B25       0.142000
     23 H7          -2.9350    -0.0020     1.6080 ha         1 B25       0.153000
     24 H23         -4.3730    -0.0250    -2.9490 hn         1 B25       0.225467
@<TRIPOS>BOND
     1     1     4 ar  
     2     1    10 1   
     3     1    12 ar  
     4     2     3 1   
     5     2     6 1   
     6     2     9 1   
     7     4     7 ar  
     8     4    16 1   
     9     5    15 1   
    10     5    17 1   
    11     5    18 1   
    12     5    24 1   
    13     7     9 ar  
    14     7    19 1   
    15     8    15 2   
    16     8    20 1   
    17     9    11 ar  
    18    10    14 1   
    19    10    21 1   
    20    11    12 ar  
    21    11    22 1   
    22    12    13 1   
    23    13    14 2   
    24    13    23 1   
    25    14    15 1   
@<TRIPOS>SUBSTRUCTURE
     1 B25         1 TEMP              0 ****  ****    0 ROOT
