@<TRIPOS>MOLECULE
molecule
   24    25     1     0     0
SMALL
bcc


@<TRIPOS>ATOM
      1 C1           0.0000     0.0000     0.0000 ca         1 B25       0.028800
      2 N1           2.1530    -0.0010     3.6750 no         1 B25       0.293200
      3 O1           1.5600    -0.0020     4.7380 o          1 B25      -0.181000
      4 C2           1.3920     0.0000     0.0000 ca         1 B25      -0.154000
      5 N2          -3.4370    -0.0200    -2.5950 nz         1 B25      -0.746600
      6 O2           3.3710    -0.0010     3.6560 o          1 B25      -0.181000
      7 C3           2.0780     0.0000     1.1940 ca         1 B25      -0.019000
      8 N3          -4.6110    -0.0180    -0.5890 n2         1 B25      -0.706100
      9 C4           1.3940     0.0000     2.4030 ca         1 B25      -0.167200
     10 N4          -0.9430    -0.0050    -1.0010 na         1 B25      -0.193400
     11 C5           0.0300    -0.0010     2.4300 ca         1 B25       0.008000
     12 C6          -0.6890     0.0000     1.2290 ca         1 B25      -0.135800
     13 C7          -2.1120    -0.0010     0.9030 cc         1 B25      -0.050200
     14 C8          -2.2070    -0.0100    -0.4510 cc         1 B25      -0.246700
     15 C9          -3.4670    -0.0160    -1.2160 ce         1 B25       0.541500
     16 H2           1.9340    -0.0000    -0.9380 ha         1 B25       0.157000
     17 H1N2        -2.9610     0.7980    -2.9210 hn         1 B25       0.475467
     18 H2N2        -2.9560    -0.8360    -2.9160 hn         1 B25       0.475467
     19 H3           3.1610    -0.0000     1.1900 ha         1 B25       0.188000
     20 H1N3        -4.6340    -0.0160     0.4120 hn         1 B25       0.488400
     21 HN4         -0.7420    -0.0100    -1.9810 hn         1 B25       0.292700
     22 H5          -0.4930    -0.0910     3.3740 ha         1 B25       0.183000
     23 H7          -2.9350    -0.0020     1.6080 ha         1 B25       0.175000
     24 H23         -4.3730    -0.0250    -2.9490 hn         1 B25       0.475467
@<TRIPOS>BOND
     1     8    15 2
     2    10    14 1
     3    10     1 1
     4    15    14 1
     5    15     5 1
     6     4     1 ar
     7     4     7 ar
     8    14    13 2
     9     1    12 ar
    10     7     9 ar
    11    13    12 1
    12    12    11 ar
    13     9    11 ar
    14     9     2 1
    15     2     6 1
    16     2     3 1
    17     4    16 1
    18     5    17 1
    19     5    18 1
    20     7    19 1
    21     8    20 1
    22    10    21 1
    23    11    22 1
    24    13    23 1
    25    24     5 1
@<TRIPOS>SUBSTRUCTURE
     1 B25         1 TEMP              0 ****  ****    0 ROOT
