@<TRIPOS>MOLECULE
B28
   45    47     1     0     0
SMALL
bcc


@<TRIPOS>ATOM
      1 CAM         0.0000    0.0000    0.0000 ca        1 B28     -0.101500
      2 CAI         1.3950    0.0000    0.0000 ca        1 B28     -0.142500
      3 CAH         2.0910    0.0000    1.2090 ca        1 B28     -0.465000
      4 CAJ         1.3930    0.0000    2.4170 ca        1 B28     -0.142500
      5 CAN        -0.0020    0.0010    2.4150 ca        1 B28     -0.101500
      6 CAW        -0.6980    0.0000    1.2070 cp        1 B28     -0.356000
      7 CAX        -2.1450    0.0010    1.2060 cp        1 B28      0.085000
      8 CAQ        -2.8430    1.2090    1.2050 ca        1 B28     -0.149500
      9 CAS        -4.2380    1.2090    1.2050 ca        1 B28     -0.115500
     10 CAP        -2.8430   -1.2070    1.2050 ca        1 B28     -0.149500
     11 CAR        -4.2380   -1.2070    1.2050 ca        1 B28     -0.115500
     12 CAY        -4.9350    0.0010    1.2050 cp        1 B28     -0.047000
     13 CAZ        -6.3820    0.0020    1.2030 cp        1 B28     -0.035000
     14 CAT        -7.0790   -1.0440    0.5990 ca        1 B28     -0.021000
     15 CAO        -7.0790    1.0480    1.8080 ca        1 B28     -0.155000
     16 CAK        -8.4740    1.0490    1.8070 ca        1 B28     -0.166000
     17 CAL        -9.1710    0.0030    1.2020 ca        1 B28     -0.115000
     18 CAV        -8.4660   -1.0310    0.6060 ca        1 B28     -0.025300
     19 CAU        -9.2210   -2.1610   -0.0480 c3        1 B28     -0.004100
     20 CBA        -9.5720   -3.3770    0.8480 c3        1 B28      0.540400
     21 PBB        -8.1220   -4.1230    1.6670 p5        1 B28      0.402700
     22 OAD        -7.2760   -4.7380    0.4340 o         1 B28     -0.647167
     23 OAE        -7.3550   -3.2110    2.5780 o         1 B28     -0.647167
     24 OAA        -8.7220   -5.4380    2.3890 o         1 B28     -0.647167
     25 PBC       -10.7730   -4.4210   -0.0960 p5        1 B28      0.402700
     26 OAF       -12.0510   -3.7280   -0.4650 o         1 B28     -0.647167
     27 OAG        -9.8900   -4.9490   -1.3430 o         1 B28     -0.647167
     28 OAB       -10.9500   -5.7400    0.8210 o         1 B28     -0.647167
     29 OAC       -10.3900   -2.9450    1.9370 oh        1 B28     -0.645800
     30 HAM        -0.5410   -0.0000   -0.9380 ha        1 B28      0.056500
     31 HAI         1.9370   -0.0000   -0.9380 ha        1 B28      0.032000
     32 HAH         3.1750   -0.0000    1.2100 ha        1 B28      0.049000
     33 HAJ         1.9340    0.0010    3.3550 ha        1 B28      0.032000
     34 HAN        -0.5440    0.0020    3.3530 ha        1 B28      0.056500
     35 HAQ        -2.3010    2.1470    1.2020 ha        1 B28      0.092000
     36 HAS        -4.7790    2.1460    1.1460 ha        1 B28      0.118000
     37 HAP        -2.3010   -2.1450    1.2080 ha        1 B28      0.092000
     38 HAR        -4.7790   -2.1440    1.2650 ha        1 B28      0.118000
     39 HAT        -6.5420   -1.8600    0.1290 ha        1 B28      0.150000
     40 HAO        -6.5370    1.8600    2.2780 ha        1 B28      0.075000
     41 HAK        -9.0150    1.8610    2.2750 ha        1 B28      0.053000
     42 HAL       -10.2540   -0.0000    1.1980 ha        1 B28      0.095000
     43 HAU1       -8.6290   -2.5200   -0.8800 hc        1 B28      0.028700
     44 HAU2      -10.1470   -1.7590   -0.4420 hc        1 B28      0.028700
     45 HOAC      -10.6510   -3.6920    2.4490 ho        1 B28      0.428000
@<TRIPOS>BOND
     1    1    2 ar  
     2    1    6 ar  
     3    1   30 1   
     4    2    3 ar  
     5    2   31 1   
     6    3    4 ar  
     7    3   32 1   
     8    4    5 ar  
     9    4   33 1   
    10    5    6 ar  
    11    5   34 1   
    12    6    7 1   
    13    7    8 ar  
    14    7   10 ar  
    15    8    9 ar  
    16    8   35 1   
    17    9   12 ar  
    18    9   36 1   
    19   10   11 ar  
    20   10   37 1   
    21   11   12 ar  
    22   11   38 1   
    23   12   13 1   
    24   13   14 ar  
    25   13   15 ar  
    26   14   18 ar  
    27   14   39 1   
    28   15   16 ar  
    29   15   40 1   
    30   16   17 ar  
    31   16   41 1   
    32   17   18 ar  
    33   17   42 1   
    34   18   19 1   
    35   19   20 1   
    36   19   43 1   
    37   19   44 1   
    38   20   21 1   
    39   20   25 1   
    40   20   29 1   
    41   21   22 1   
    42   21   23 1   
    43   21   24 1   
    44   25   26 1   
    45   25   27 1   
    46   25   28 1   
    47   29   45 1   
@<TRIPOS>SUBSTRUCTURE
     1 B28         1 TEMP              0 ****  ****    0 ROOT
