@<TRIPOS>MOLECULE
B2D
   46    50     1     0     0
SMALL
bcc


@<TRIPOS>ATOM
      1 N1           0.0000     0.0000     0.0000 na         1 B2D       0.592300
      2 N3           1.7580     0.0010    -1.2660 nc         1 B2D      -0.041000
      3 C4           1.3750     0.0000     0.0000 cd         1 B2D      -0.323300
      4 C5          -0.8170    -0.0160     3.6250 ca         1 B2D      -0.185500
      5 C6          -2.2110    -0.0150     3.6050 ca         1 B2D      -0.062500
      6 C7          -2.9150    -0.0260     4.7920 ca         1 B2D      -0.107500
      7 C8          -2.2410    -0.0370     6.0000 ca         1 B2D      -0.071000
      8 C10         -0.1430    -0.0260     4.8450 ca         1 B2D      -0.062500
      9 C13         -3.5250     1.6350    -2.4560 ca         1 B2D       0.060300
     10 C15         -5.6590     0.8810    -3.2540 ca         1 B2D       0.489200
     11 C17         -3.9900     2.9620    -2.6270 ca         1 B2D       0.169300
     12 C20         -3.6370     5.2370    -2.4920 ca         1 B2D       0.297200
     13 C21         -4.3980     7.8220    -2.7720 c3         1 B2D       0.242700
     14 C19         -4.9220     5.5120    -2.9710 ca         1 B2D       0.044800
     15 C18         -5.7670     4.4810    -3.2860 ca         1 B2D      -0.184300
     16 N7          -3.2130     4.0060    -2.3360 nb         1 B2D      -0.525000
     17 C16         -5.3030     3.1630    -3.1150 ca         1 B2D       0.354300
     18 N6          -6.0800     2.1150    -3.4070 nb         1 B2D      -0.643000
     19 C14         -4.3860     0.5980    -2.7790 ca         1 B2D      -0.371300
     20 N5          -2.2450     1.3810    -1.9860 nu         1 B2D      -0.371600
     21 C11         -0.3720    -0.0000    -1.2980 cd         1 B2D       0.103800
     22 N2          -0.7000    -0.0050     1.2080 nd         1 B2D      -0.622800
     23 N4           0.7180    -0.0010    -2.0250 nc         1 B2D      -0.307700
     24 C3           2.0660     0.0000     1.2260 cd         1 B2D       0.047000
     25 C2           1.3570    -0.0010     2.3860 cc         1 B2D      -0.270300
     26 C1          -0.0540    -0.0110     2.3540 cc         1 B2D       0.536800
     27 C9          -0.8580    -0.0360     6.0260 ca         1 B2D      -0.107500
     28 H6          -2.7400    -0.0070     2.6600 ha         1 B2D       0.117000
     29 H7          -3.9980    -0.0260     4.7770 ha         1 B2D       0.109000
     30 H8          -2.7990    -0.0450     6.9280 ha         1 B2D       0.105000
     31 H10          0.9400    -0.0270     4.8660 ha         1 B2D       0.117000
     32 H15         -6.3230     0.0620    -3.5030 h4         1 B2D      -0.027900
     33 H20         -2.9770     6.0590    -2.2450 h4         1 B2D      -0.007900
     34 H21         -4.1270     7.7230    -1.7280 h1         1 B2D      -0.000967
     35 H21A        -3.5030     7.7890    -3.3810 h1         1 B2D      -0.000967
     36 H21B        -4.9050     8.7670    -2.9260 h1         1 B2D      -0.000967
     37 H18         -6.7660     4.6750    -3.6580 ha         1 B2D       0.137000
     38 H14         -4.0650    -0.4300    -2.6630 ha         1 B2D       0.125000
     39 HN5         -1.6280     2.1410    -1.7800 hn         1 B2D       0.314800
     40 H12         -2.4320    -0.5110    -1.1130 h1         1 B2D       0.034200
     41 H12A        -1.8210    -0.5100    -2.7740 h1         1 B2D       0.034200
     42 H3           3.1490     0.0080     1.2460 ha         1 B2D       0.129000
     43 H2           1.8760     0.0080     3.3370 ha         1 B2D       0.138000
     44 H9          -0.3350    -0.0450     6.9740 ha         1 B2D       0.109000
     45 C12         -1.7870    -0.0000    -1.8190 c3         1 B2D       0.187500
     46 O1          -5.3310     6.7980    -3.1210 os         1 B2D      -0.297900
@<TRIPOS>BOND
     1     1     3 1   
     2     1    21 1   
     3     1    22 1   
     4     2     3 2   
     5     2    23 1   
     6     3    24 1   
     7     4     5 ar  
     8     4     8 ar  
     9     4    26 1   
    10     5     6 ar  
    11     5    28 1   
    12     6     7 ar  
    13     6    29 1   
    14     7    27 ar  
    15     7    30 1   
    16     8    27 ar  
    17     8    31 1   
    18     9    11 ar  
    19     9    19 ar  
    20     9    20 1   
    21    10    18 ar  
    22    10    19 ar  
    23    10    32 1   
    24    11    16 ar  
    25    11    17 ar  
    26    12    14 ar  
    27    12    16 ar  
    28    12    33 1   
    29    13    34 1   
    30    13    35 1   
    31    13    36 1   
    32    13    46 1   
    33    14    15 ar  
    34    14    46 1   
    35    15    17 ar  
    36    15    37 1   
    37    17    18 ar  
    38    19    38 1   
    39    20    39 1   
    40    20    45 1   
    41    21    23 2   
    42    21    45 1   
    43    22    26 2   
    44    24    25 2   
    45    24    42 1   
    46    25    26 1   
    47    25    43 1   
    48    27    44 1   
    49    40    45 1   
    50    41    45 1   
@<TRIPOS>SUBSTRUCTURE
     1 B2D         1 TEMP              0 ****  ****    0 ROOT
