@<TRIPOS>MOLECULE
B2E
   28    28     1     0     0
SMALL
bcc


@<TRIPOS>ATOM
      1 C5           0.0000     0.0000     0.0000 cc         1 B2E      -0.349400
      2 C6           1.3970     0.0000     0.0000 cd         1 B2E       0.150700
      3 O6           2.0790     0.0010    -1.1600 oh         1 B2E      -0.449100
      4 N1           2.0590     0.0000     1.1920 n          1 B2E       0.020000
      5 C2           1.3960    -0.0010     2.3590 c          1 B2E       0.606500
      6 N3           0.0540    -0.0010     2.4220 n          1 B2E      -0.090400
      7 C4          -0.6880     0.0000     1.2950 c          1 B2E       0.625700
      8 N           -2.0980    -0.1090    -1.2370 ns         1 B2E      -0.146900
      9 CA          -2.8420    -0.2150    -2.4940 c3         1 B2E      -0.073000
     10 C           -4.3150    -0.3340    -2.1970 c          1 B2E       0.969600
     11 OXT         -5.1960    -0.4440    -3.2030 o          1 B2E      -0.890800
     12 O           -4.7030    -0.3310    -1.0520 o          1 B2E      -0.890800
     13 CAJ         -0.7550     0.0070    -1.2570 c          1 B2E       0.584300
     14 CAQ          3.5250    -0.0010     1.2000 c3         1 B2E       0.054300
     15 CAR         -0.6110    -0.0030     3.7280 c3         1 B2E       0.070300
     16 O2           2.0320    -0.0020     3.3950 o          1 B2E      -0.731500
     17 O4          -1.9040    -0.0000     1.3530 o          1 B2E      -0.618500
     18 OAN         -0.1700     0.1180    -2.3180 o          1 B2E      -0.711100
     19 H6           2.2300    -0.8880    -1.4370 ho         1 B2E       0.420000
     20 H           -2.5860    -0.1270    -0.3630 hn         1 B2E       0.243500
     21 HA2         -2.5110    -1.0910    -3.0370 h1         1 B2E       0.020700
     22 HA1         -2.6660     0.6700    -3.0930 h1         1 B2E       0.020700
     23 HA6          3.8860    -1.0000     0.9890 h1         1 B2E       0.027033
     24 HAQ          3.8900     0.6820     0.4420 h1         1 B2E       0.027033
     25 HA5          3.8810     0.3150     2.1730 h1         1 B2E       0.027033
     26 HA4          0.0520     0.4250     4.4700 h1         1 B2E       0.028033
     27 HA3         -1.5190     0.5850     3.6710 h1         1 B2E       0.028033
     28 HAR         -0.8560    -1.0200     4.0060 h1         1 B2E       0.028033
@<TRIPOS>BOND
     1     1     2 2   
     2     1     7 1   
     3     1    13 1   
     4     2     3 1   
     5     2     4 1   
     6     3    19 1   
     7     4     5 1   
     8     4    14 1   
     9     5     6 1   
    10     5    16 2   
    11     6     7 1   
    12     6    15 1   
    13     7    17 2   
    14     8     9 1   
    15     8    13 1   
    16     8    20 1   
    17     9    10 1   
    18     9    21 1   
    19     9    22 1   
    20    10    11 1   
    21    10    12 1   
    22    13    18 2   
    23    14    23 1   
    24    14    24 1   
    25    14    25 1   
    26    15    26 1   
    27    15    27 1   
    28    15    28 1   
@<TRIPOS>SUBSTRUCTURE
     1 B2E         1 TEMP              0 ****  ****    0 ROOT
