@<TRIPOS>MOLECULE
molecule
   21    21     1     0     0
SMALL
bcc


@<TRIPOS>ATOM
      1 C1           0.0000     0.0000     0.0000 c3         1 B2J      -0.084100
      2 C2           1.5300     0.0000     0.0000 c3         1 B2J      -0.012300
      3 S3           2.1340     0.0000     1.7060 ss         1 B2J      -0.241400
      4 C4           3.8710    -0.0000     1.4160 ca         1 B2J       0.858300
      5 N5           4.3390    -0.0010     0.1710 nb         1 B2J      -0.874000
      6 N6           4.7200     0.0050     2.4430 nb         1 B2J      -0.814000
      7 C7           6.0230     0.0060     2.2260 ca         1 B2J       0.766300
      8 C8           6.9780     0.0120     3.3920 c3         1 B2J      -0.125400
      9 N9           6.4900     0.0000     0.9900 nb         1 B2J      -0.860000
     10 C10          5.6500    -0.0000    -0.0420 ca         1 B2J       0.980900
     11 N11          6.1400    -0.0010    -1.3320 nv         1 B2J      -0.980500
     12 H1          -0.3610    -0.8840     0.5110 hc         1 B2J       0.046033
     13 H1A         -0.3610    -0.0000    -1.0210 hc         1 B2J       0.046033
     14 H1B         -0.3610     0.8850     0.5110 hc         1 B2J       0.046033
     15 H2           1.8920    -0.8850    -0.5110 h1         1 B2J       0.075700
     16 H2A          1.8920     0.8850    -0.5110 h1         1 B2J       0.075700
     17 H8           7.6780     0.8310     3.2810 hc         1 B2J       0.064033
     18 H8A          6.4220     0.1340     4.3140 hc         1 B2J       0.064033
     19 H8B          7.5210    -0.9260     3.4190 hc         1 B2J       0.064033
     20 HN11         5.5080    -0.0130    -2.1080 hn         1 B2J       0.452800
     21 HN1A         7.1280     0.0010    -1.4910 hn         1 B2J       0.452800
@<TRIPOS>BOND
     1     1     2 1
     2     2     3 1
     3     3     4 1
     4     4     5 ar
     5     4     6 ar
     6     5    10 ar
     7     6     7 ar
     8     7     8 1
     9     7     9 ar
    10     9    10 ar
    11    10    11 1
    12     1    12 1
    13     1    13 1
    14     1    14 1
    15     2    15 1
    16     2    16 1
    17     8    17 1
    18     8    18 1
    19     8    19 1
    20    11    20 1
    21    11    21 1
@<TRIPOS>SUBSTRUCTURE
     1 B2J         1 TEMP              0 ****  ****    0 ROOT
