@<TRIPOS>MOLECULE
B2J
   21    21     1     0     0
SMALL
bcc


@<TRIPOS>ATOM
      1 C1           0.0000     0.0000     0.0000 c3         1 B2J       0.022900
      2 C2           1.5300     0.0000     0.0000 c3         1 B2J       0.082700
      3 S3           2.1340     0.0000     1.7060 ss         1 B2J      -0.371400
      4 C4           3.8710    -0.0000     1.4160 ca         1 B2J       0.825300
      5 N5           4.3390    -0.0010     0.1710 nb         1 B2J      -0.781000
      6 N6           4.7200     0.0050     2.4430 nb         1 B2J      -0.703000
      7 C7           6.0230     0.0060     2.2260 ca         1 B2J       0.691300
      8 C8           6.9780     0.0120     3.3920 c3         1 B2J      -0.034400
      9 N9           6.4900     0.0000     0.9900 nb         1 B2J      -0.756000
     10 C10          5.6500    -0.0000    -0.0420 ca         1 B2J       0.749900
     11 N11          6.1400    -0.0010    -1.3320 nv         1 B2J      -0.474500
     12 H1          -0.3610    -0.8840     0.5110 hc         1 B2J       0.012033
     13 H1A         -0.3610    -0.0000    -1.0210 hc         1 B2J       0.012033
     14 H1B         -0.3610     0.8850     0.5110 hc         1 B2J       0.012033
     15 H2           1.8920    -0.8850    -0.5110 h1         1 B2J       0.045700
     16 H2A          1.8920     0.8850    -0.5110 h1         1 B2J       0.045700
     17 H8           7.6780     0.8310     3.2810 hc         1 B2J       0.022700
     18 H8A          6.4220     0.1340     4.3140 hc         1 B2J       0.022700
     19 H8B          7.5210    -0.9260     3.4190 hc         1 B2J       0.022700
     20 HN11         5.5080    -0.0130    -2.1080 hn         1 B2J       0.277300
     21 HN1A         7.1280     0.0010    -1.4910 hn         1 B2J       0.277300
@<TRIPOS>BOND
     1     1     2 1   
     2     1    12 1   
     3     1    13 1   
     4     1    14 1   
     5     2     3 1   
     6     2    15 1   
     7     2    16 1   
     8     3     4 1   
     9     4     5 ar  
    10     4     6 ar  
    11     5    10 ar  
    12     6     7 ar  
    13     7     8 1   
    14     7     9 ar  
    15     8    17 1   
    16     8    18 1   
    17     8    19 1   
    18     9    10 ar  
    19    10    11 1   
    20    11    20 1   
    21    11    21 1   
@<TRIPOS>SUBSTRUCTURE
     1 B2J         1 TEMP              0 ****  ****    0 ROOT
