@<TRIPOS>MOLECULE
molecule
   31    32     1     0     0
SMALL
bcc


@<TRIPOS>ATOM
      1 C1           0.0000     0.0000     0.0000 ca         1 B2K      -0.020000
      2 C2           1.3830     0.0000     0.0000 ca         1 B2K      -0.153500
      3 C3           2.0750     0.0000     1.1970 ca         1 B2K      -0.024300
      4 C4           3.5810    -0.0000     1.1960 c3         1 B2K      -0.057800
      5 C5           1.3840     0.0010     2.3940 ca         1 B2K      -0.153500
      6 C6           0.0010     0.0000     2.3950 ca         1 B2K      -0.020000
      7 C7          -0.6910    -0.0010     1.1980 ca         1 B2K      -0.305500
      8 S8          -2.4520    -0.0010     1.1980 sy         1 B2K       1.223200
      9 O9          -2.8530     0.5430     2.4480 o          1 B2K      -0.609300
     10 O10         -2.8540     0.5450    -0.0510 o          1 B2K      -0.609300
     11 C11         -2.9740    -1.6840     1.1980 ca         1 B2K       0.299200
     12 N12         -3.1720    -2.3240     2.3380 nb         1 B2K      -0.720000
     13 C13         -3.1870    -2.3520     0.0020 ca         1 B2K      -0.368600
     14 C14         -3.5970    -3.6750     0.0460 ca         1 B2K       0.502600
     15 C15         -3.8410    -4.4410    -1.2300 c3         1 B2K      -0.146400
     16 N16         -3.7720    -4.2570     1.2200 nb         1 B2K      -0.773000
     17 C17         -3.5640    -3.5900     2.3450 ca         1 B2K       0.936900
     18 N18         -3.7610    -4.2290     3.5570 nv         1 B2K      -0.986500
     19 H1          -0.5420    -0.0010    -0.9380 ha         1 B2K       0.153000
     20 H2           1.9240     0.0010    -0.9380 ha         1 B2K       0.138500
     21 H4           3.9420     0.2540     0.2070 hc         1 B2K       0.049700
     22 H4A          3.9430    -0.9840     1.4710 hc         1 B2K       0.049700
     23 H4B          3.9430     0.7300     1.9100 hc         1 B2K       0.049700
     24 H5           1.9260     0.0010     3.3320 ha         1 B2K       0.138500
     25 H6          -0.5400     0.0000     3.3330 ha         1 B2K       0.153000
     26 H13         -3.2530    -1.7950    -0.9250 ha         1 B2K       0.167000
     27 H15         -2.9390    -4.4390    -1.8300 hc         1 B2K       0.060033
     28 H15A        -4.1140    -5.4610    -0.9910 hc         1 B2K       0.060033
     29 H15B        -4.6440    -3.9710    -1.7840 hc         1 B2K       0.060033
     30 HN18        -3.6040    -3.7370     4.4140 hn         1 B2K       0.453300
     31 HN1A        -4.0570    -5.1850     3.5760 hn         1 B2K       0.453300
@<TRIPOS>BOND
     1     1     2 ar
     2     1     7 ar
     3     2     3 ar
     4     3     4 1
     5     3     5 ar
     6     5     6 ar
     7     6     7 ar
     8     7     8 1
     9     8     9 2
    10     8    10 2
    11     8    11 1
    12    11    12 ar
    13    11    13 ar
    14    12    17 ar
    15    13    14 ar
    16    14    15 1
    17    14    16 ar
    18    16    17 ar
    19    17    18 1
    20     1    19 1
    21     2    20 1
    22     4    21 1
    23     4    22 1
    24     4    23 1
    25     5    24 1
    26     6    25 1
    27    13    26 1
    28    15    27 1
    29    15    28 1
    30    15    29 1
    31    18    30 1
    32    18    31 1
@<TRIPOS>SUBSTRUCTURE
     1 B2K         1 TEMP              0 ****  ****    0 ROOT
