@<TRIPOS>MOLECULE
B2L
   36    39     1     0     0
SMALL
bcc


@<TRIPOS>ATOM
      1 C1           0.0000     0.0000     0.0000 c3         1 B2L       0.274700
      2 O2           1.4300     0.0000     0.0000 os         1 B2L      -0.405600
      3 C3           2.0210     0.0000     1.3030 c3         1 B2L       0.276700
      4 C4           1.5530    -1.2140     2.0620 ca         1 B2L      -0.121300
      5 C5           2.3150    -1.7690     3.0400 ca         1 B2L      -0.088000
      6 C6           1.8710    -2.8920     3.7370 ca         1 B2L      -0.097000
      7 C7           0.6670    -3.4660     3.4590 ca         1 B2L      -0.086000
      8 C8          -0.1450    -2.9200     2.4550 ca         1 B2L      -0.001000
      9 C9           0.3040    -1.7810     1.7500 ca         1 B2L      -0.013000
     10 C10         -0.4970    -1.2180     0.7390 ca         1 B2L      -0.104300
     11 C11         -1.7010    -1.7740     0.4410 ca         1 B2L      -0.099000
     12 C12         -2.1600    -2.8960     1.1230 ca         1 B2L      -0.076000
     13 C13         -1.4040    -3.4790     2.1250 cp         1 B2L      -0.145500
     14 C14         -1.9040    -4.6730     2.8450 cp         1 B2L       0.489800
     15 N15         -1.8700    -4.7240     4.1750 nb         1 B2L      -0.630000
     16 C16         -2.4250    -5.7610     2.1380 ca         1 B2L      -0.347600
     17 C17         -2.8810    -6.8530     2.8520 ca         1 B2L       0.421600
     18 C18         -3.4500    -8.0500     2.1350 c3         1 B2L      -0.043400
     19 N19         -2.8110    -6.8370     4.1750 nb         1 B2L      -0.635000
     20 C20         -2.3170    -5.7900     4.8190 ca         1 B2L       0.713900
     21 N21         -2.2680    -5.8120     6.2030 nv         1 B2L      -0.629500
     22 H1          -0.3610     0.8940     0.4940 h1         1 B2L       0.015200
     23 H1A         -0.3610    -0.0260    -1.0210 h1         1 B2L       0.015200
     24 H3           3.1000    -0.0280     1.2090 h1         1 B2L       0.014700
     25 H3A          1.7220     0.8950     1.8340 h1         1 B2L       0.014700
     26 H5           3.2770    -1.3340     3.2820 ha         1 B2L       0.103000
     27 H6           2.4960    -3.3170     4.5140 ha         1 B2L       0.102000
     28 H7           0.3390    -4.3380     4.0110 ha         1 B2L       0.125000
     29 H11         -2.3120    -1.3360    -0.3390 ha         1 B2L       0.105000
     30 H12         -3.1250    -3.3180     0.8690 ha         1 B2L       0.107000
     31 H16         -2.2600    -5.8430     1.0700 ha         1 B2L       0.132000
     32 H18         -2.6790    -8.5070     1.5270 hc         1 B2L       0.018033
     33 H18A        -3.8110    -8.7680     2.8610 hc         1 B2L       0.018033
     34 H18B        -4.2700    -7.7350     1.5010 hc         1 B2L       0.018033
     35 HN21        -2.9580    -5.3210     6.7360 hn         1 B2L       0.279800
     36 HN2A        -1.5540    -6.3360     6.6700 hn         1 B2L       0.279800
@<TRIPOS>BOND
     1     1     2 1   
     2     1    10 1   
     3     1    22 1   
     4     1    23 1   
     5     2     3 1   
     6     3     4 1   
     7     3    24 1   
     8     3    25 1   
     9     4     5 ar  
    10     4     9 ar  
    11     5     6 ar  
    12     5    26 1   
    13     6     7 ar  
    14     6    27 1   
    15     7     8 ar  
    16     7    28 1   
    17     8     9 ar  
    18     8    13 ar  
    19     9    10 ar  
    20    10    11 ar  
    21    11    12 ar  
    22    11    29 1   
    23    12    13 ar  
    24    12    30 1   
    25    13    14 1   
    26    14    15 ar  
    27    14    16 ar  
    28    15    20 ar  
    29    16    17 ar  
    30    16    31 1   
    31    17    18 1   
    32    17    19 ar  
    33    18    32 1   
    34    18    33 1   
    35    18    34 1   
    36    19    20 ar  
    37    20    21 1   
    38    21    35 1   
    39    21    36 1   
@<TRIPOS>SUBSTRUCTURE
     1 B2L         1 TEMP              0 ****  ****    0 ROOT
