@<TRIPOS>MOLECULE
molecule
   36    39     1     0     0
SMALL
bcc


@<TRIPOS>ATOM
      1 C1           0.0000     0.0000     0.0000 c3         1 B2L       0.183700
      2 O2           1.4300     0.0000     0.0000 os         1 B2L      -0.412600
      3 C3           2.0210     0.0000     1.3030 c3         1 B2L       0.185700
      4 C4           1.5530    -1.2140     2.0620 ca         1 B2L      -0.112300
      5 C5           2.3150    -1.7690     3.0400 ca         1 B2L      -0.114000
      6 C6           1.8710    -2.8920     3.7370 ca         1 B2L      -0.126000
      7 C7           0.6670    -3.4660     3.4590 ca         1 B2L      -0.100000
      8 C8          -0.1450    -2.9200     2.4550 ca         1 B2L      -0.003000
      9 C9           0.3040    -1.7810     1.7500 ca         1 B2L      -0.021000
     10 C10         -0.4970    -1.2180     0.7390 ca         1 B2L      -0.093300
     11 C11         -1.7010    -1.7740     0.4410 ca         1 B2L      -0.126000
     12 C12         -2.1600    -2.8960     1.1230 ca         1 B2L      -0.099000
     13 C13         -1.4040    -3.4790     2.1250 cp         1 B2L      -0.138500
     14 C14         -1.9040    -4.6730     2.8450 cp         1 B2L       0.530800
     15 N15         -1.8700    -4.7240     4.1750 nb         1 B2L      -0.750000
     16 C16         -2.4250    -5.7610     2.1380 ca         1 B2L      -0.383600
     17 C17         -2.8810    -6.8530     2.8520 ca         1 B2L       0.475600
     18 C18         -3.4500    -8.0500     2.1350 c3         1 B2L      -0.146400
     19 N19         -2.8110    -6.8370     4.1750 nb         1 B2L      -0.757000
     20 C20         -2.3170    -5.7900     4.8190 ca         1 B2L       0.934900
     21 N21         -2.2680    -5.8120     6.2030 nv         1 B2L      -1.056500
     22 H1          -0.3610     0.8940     0.4940 h1         1 B2L       0.059200
     23 H1A         -0.3610    -0.0260    -1.0210 h1         1 B2L       0.059200
     24 H3           3.1000    -0.0280     1.2090 h1         1 B2L       0.058200
     25 H3A          1.7220     0.8950     1.8340 h1         1 B2L       0.058200
     26 H5           3.2770    -1.3340     3.2820 ha         1 B2L       0.129000
     27 H6           2.4960    -3.3170     4.5140 ha         1 B2L       0.131000
     28 H7           0.3390    -4.3380     4.0110 ha         1 B2L       0.154000
     29 H11         -2.3120    -1.3360    -0.3390 ha         1 B2L       0.132000
     30 H12         -3.1250    -3.3180     0.8690 ha         1 B2L       0.135000
     31 H16         -2.2600    -5.8430     1.0700 ha         1 B2L       0.151000
     32 H18         -2.6790    -8.5070     1.5270 hc         1 B2L       0.057367
     33 H18A        -3.8110    -8.7680     2.8610 hc         1 B2L       0.057367
     34 H18B        -4.2700    -7.7350     1.5010 hc         1 B2L       0.057367
     35 HN21        -2.9580    -5.3210     6.7360 hn         1 B2L       0.445300
     36 HN2A        -1.5540    -6.3360     6.6700 hn         1 B2L       0.445300
@<TRIPOS>BOND
     1     1     2 1
     2     1    10 1
     3     2     3 1
     4     3     4 1
     5     4     5 ar
     6     4     9 ar
     7     5     6 ar
     8     6     7 ar
     9     7     8 ar
    10     8     9 ar
    11     8    13 ar
    12     9    10 ar
    13    10    11 ar
    14    11    12 ar
    15    12    13 ar
    16    13    14 1
    17    14    15 ar
    18    14    16 ar
    19    15    20 ar
    20    16    17 ar
    21    17    18 1
    22    17    19 ar
    23    19    20 ar
    24    20    21 1
    25     1    22 1
    26     1    23 1
    27     3    24 1
    28     3    25 1
    29     5    26 1
    30     6    27 1
    31     7    28 1
    32    11    29 1
    33    12    30 1
    34    16    31 1
    35    18    32 1
    36    18    33 1
    37    18    34 1
    38    21    35 1
    39    21    36 1
@<TRIPOS>SUBSTRUCTURE
     1 B2L         1 TEMP              0 ****  ****    0 ROOT
