@<TRIPOS>MOLECULE
B2M
   38    40     1     0     0
SMALL
bcc


@<TRIPOS>ATOM
      1 CAA          0.0000     0.0000     0.0000 c3         1 B2M      -0.044400
      2 CAR          1.5080     0.0000     0.0000 ca         1 B2M       0.373600
      3 CAK          2.1840     0.0000     1.2160 ca         1 B2M      -0.199300
      4 NAO          2.1440    -0.0060    -1.1460 nb         1 B2M      -0.540000
      5 CAY          3.4770    -0.0070    -1.2110 ca         1 B2M       0.370600
      6 CAI          4.1410    -0.0130    -2.4530 ca         1 B2M      -0.143300
      7 CAH          5.5010    -0.0140    -2.4900 ca         1 B2M      -0.074000
      8 CAT          6.2530    -0.0080    -1.3160 ca         1 B2M       0.039100
      9 BrAF         8.1410    -0.0090    -1.4170 br         1 B2M      -0.124100
     10 CAM          5.6440    -0.0030    -0.0960 ca         1 B2M      -0.088000
     11 CAZ          4.2460    -0.0020    -0.0210 ca         1 B2M      -0.104300
     12 CAX          3.5740    -0.0010     1.2280 ca         1 B2M      -0.105600
     13 CAQ          4.3270    -0.0010     2.5000 c          1 B2M       0.615700
     14 OAB          5.5370    -0.1090     2.4900 o          1 B2M      -0.591100
     15 NAP          3.6710     0.1190     3.6720 ns         1 B2M      -0.015900
     16 NAN          4.3890     0.2240     4.8690 n2         1 B2M      -0.464300
     17 CAG          3.7610     0.2230     6.0060 ce         1 B2M       0.432800
     18 CAW          2.3250    -0.1070     6.0540 ca         1 B2M      -0.190900
     19 CAL          1.7640    -0.9410     5.0840 ca         1 B2M      -0.119000
     20 CAS          0.4190    -1.2470     5.1350 ca         1 B2M      -0.044600
     21 ClAD        -0.2780    -2.2820     3.9270 cl         1 B2M      -0.001400
     22 CAJ         -0.3760    -0.7310     6.1450 ca         1 B2M      -0.066000
     23 CAU          0.1680     0.0940     7.1110 ca         1 B2M      -0.085600
     24 ClAE        -0.8390     0.7340     8.3720 cl         1 B2M       0.014600
     25 CAV          1.5180     0.4080     7.0770 ca         1 B2M       0.162100
     26 OAC          2.0550     1.2140     8.0290 oh         1 B2M      -0.481100
     27 HAA         -0.3610     0.1780    -1.0060 hc         1 B2M       0.016033
     28 HAAA        -0.3610     0.7820     0.6570 hc         1 B2M       0.016033
     29 HAAB        -0.3610    -0.9600     0.3490 hc         1 B2M       0.016033
     30 HAK          1.6340     0.1220     2.1410 ha         1 B2M       0.112000
     31 HAI          3.5710    -0.0180    -3.3740 ha         1 B2M       0.122000
     32 HAH          6.0070    -0.0200    -3.4480 ha         1 B2M       0.116000
     33 HAM          6.2380     0.0020     0.8090 ha         1 B2M       0.187000
     34 HNAP         2.6730     0.1960     3.6800 hn         1 B2M       0.194500
     35 HAG          4.3220     0.3060     6.9290 h4         1 B2M       0.012800
     36 HAL          2.4000    -1.4200     4.3500 ha         1 B2M       0.140000
     37 HAJ         -1.4310    -0.9770     6.1780 ha         1 B2M       0.130000
     38 HOAC         2.0740     0.7570     8.8540 ho         1 B2M       0.413000
@<TRIPOS>BOND
     1     1     2 1   
     2     1    27 1   
     3     1    28 1   
     4     1    29 1   
     5     2     3 ar  
     6     2     4 ar  
     7     3    12 ar  
     8     3    30 1   
     9     4     5 ar  
    10     5     6 ar  
    11     5    11 ar  
    12     6     7 ar  
    13     6    31 1   
    14     7     8 ar  
    15     7    32 1   
    16     8     9 1   
    17     8    10 ar  
    18    10    11 ar  
    19    10    33 1   
    20    11    12 ar  
    21    12    13 1   
    22    13    14 2   
    23    13    15 1   
    24    15    16 1   
    25    15    34 1   
    26    16    17 2   
    27    17    18 1   
    28    17    35 1   
    29    18    19 ar  
    30    18    25 ar  
    31    19    20 ar  
    32    19    36 1   
    33    20    21 1   
    34    20    22 ar  
    35    22    23 ar  
    36    22    37 1   
    37    23    24 1   
    38    23    25 ar  
    39    25    26 1   
    40    26    38 1   
@<TRIPOS>SUBSTRUCTURE
     1 B2M         1 TEMP              0 ****  ****    0 ROOT
