@<TRIPOS>MOLECULE
B2P
   13    12     1     0     0
SMALL
bcc


@<TRIPOS>ATOM
      1 O           0.1820   -0.4890    0.0380 o         1 B2P     -0.818300
      2 C           1.3260    0.0360    0.0460 c         1 B2P      0.928600
      3 OXT         1.8830    0.5450    1.0560 o         1 B2P     -0.818300
      4 CA          2.1410    0.0130   -1.2920 c3        1 B2P     -0.051600
      5 BR          1.7370    1.6750   -2.3070 br        1 B2P     -0.282400
      6 CB          3.6210   -0.0160   -1.0000 c3        1 B2P     -0.072100
      7 CM          1.7270   -1.1690   -2.1320 c3        1 B2P     -0.072100
      8 H2          4.2300    0.0230   -1.9350 hc        1 B2P      0.031033
      9 H3          3.8970    0.8380   -0.3350 hc        1 B2P      0.031033
     10 H4          3.8630   -0.9630   -0.4570 hc        1 B2P      0.031033
     11 H5          1.9800   -2.1100   -1.5830 hc        1 B2P      0.031033
     12 H6          0.6210   -1.1570   -2.2940 hc        1 B2P      0.031033
     13 H7          2.2510   -1.1820   -3.1190 hc        1 B2P      0.031033
@<TRIPOS>BOND
     1    1    2 1   
     2    2    3 1   
     3    2    4 1   
     4    4    5 1   
     5    4    6 1   
     6    4    7 1   
     7    6    8 1   
     8    6    9 1   
     9    6   10 1   
    10    7   11 1   
    11    7   12 1   
    12    7   13 1   
@<TRIPOS>SUBSTRUCTURE
     1 B2P         1 TEMP              0 ****  ****    0 ROOT
