@<TRIPOS>MOLECULE
molecule
   13    12     1     0     0
SMALL
bcc


@<TRIPOS>ATOM
      1 O            0.0000     0.0000     0.0000 o          1 B2P      -0.828300
      2 C            1.2090     0.0000     0.0000 c          1 B2P       0.897600
      3 OXT          1.8790     0.0000     1.1630 o          1 B2P      -0.828300
      4 CA           1.9630    -0.0060    -1.3050 c3         1 B2P      -0.045600
      5 Br           3.2120    -1.5250    -1.3320 br         1 B2P      -0.247400
      6 CB           0.9740    -0.1370    -2.4650 c3         1 B2P      -0.066600
      7 CM           2.7460     1.3010    -1.4480 c3         1 B2P      -0.066600
      8 H2           0.3970    -1.0470    -2.3470 hc         1 B2P       0.030867
      9 H3           0.3060     0.7160    -2.4680 hc         1 B2P       0.030867
     10 H4           1.5180    -0.1730    -3.4010 hc         1 B2P       0.030867
     11 H5           3.2120     1.3370    -2.4250 hc         1 B2P       0.030867
     12 H6           2.0710     2.1400    -1.3380 hc         1 B2P       0.030867
     13 H7           3.5100     1.3490    -0.6820 hc         1 B2P       0.030867
@<TRIPOS>BOND
     1     1     2 1
     2     3     2 1
     3     2     4 1
     4     6     4 1
     5     4     7 1
     6     4     5 1
     7     6     8 1
     8     6     9 1
     9     6    10 1
    10     7    11 1
    11     7    12 1
    12     7    13 1
@<TRIPOS>SUBSTRUCTURE
     1 B2P         1 TEMP              0 ****  ****    0 ROOT
