@<TRIPOS>MOLECULE
molecule
   41    44     1     0     0
SMALL
bcc


@<TRIPOS>ATOM
      1 C13          0.0000     0.0000     0.0000 cx         1 B2S       0.054400
      2 O2           1.4330     0.0000     0.0000 op         1 B2S      -0.353600
      3 C12          0.8240     0.0000     1.2710 cx         1 B2S       0.000800
      4 C5           0.8700     1.2110     2.2280 c3         1 B2S      -0.026000
      5 C14          1.1720     2.5410     1.5370 c3         1 B2S      -0.067100
      6 C4           1.9440     0.7760     3.2640 c3         1 B2S      -0.098400
      7 C3           1.9160    -0.7650     3.2880 c3         1 B2S       0.127100
      8 O3           1.5280    -1.2260     4.5840 oh         1 B2S      -0.586800
      9 C2           0.8710    -1.2030     2.2330 c3         1 B2S       0.148100
     10 O1          -0.4120    -1.2360     2.9020 os         1 B2S      -0.374600
     11 C11         -1.2090    -0.0970     2.5750 c3         1 B2S       0.174300
     12 C10         -2.5650    -0.1540     3.2000 c2         1 B2S      -0.104200
     13 C9          -3.2200     0.9480     3.5650 ce         1 B2S      -0.154400
     14 C16         -4.5930     0.8270     4.1750 c3         1 B2S      -0.037900
     15 C8          -2.6250     2.2750     3.3850 c          1 B2S       0.569300
     16 O5          -3.1530     3.2620     3.8530 o          1 B2S      -0.530100
     17 C7          -1.3330     2.3840     2.5970 c3         1 B2S       0.069100
     18 O4          -0.6580     3.5980     2.9320 oh         1 B2S      -0.590800
     19 C6          -0.4790     1.1880     2.9810 c3         1 B2S      -0.064000
     20 C15         -0.2360     1.1780     4.4920 c3         1 B2S       0.131400
     21 O6          -1.4900     1.1580     5.1750 oh         1 B2S      -0.611800
     22 H13         -0.4700    -0.9420    -0.2570 h1         1 B2S       0.087700
     23 H13A        -0.4700     0.9420    -0.2570 h1         1 B2S       0.087700
     24 H14          2.0830     2.4490     0.9580 hc         1 B2S       0.049367
     25 H14A         1.2960     3.3170     2.2830 hc         1 B2S       0.049367
     26 H14B         0.3520     2.8010     0.8790 hc         1 B2S       0.049367
     27 H4           2.9220     1.1260     2.9550 hc         1 B2S       0.070700
     28 H4A          1.6990     1.1690     4.2430 hc         1 B2S       0.070700
     29 H3           2.8920    -1.1580     3.0300 h1         1 B2S       0.045700
     30 HO3          2.1460    -1.8720     4.8850 ho         1 B2S       0.401000
     31 H2           1.1240    -2.1340     1.7400 h1         1 B2S       0.090700
     32 H11         -1.3400    -0.0810     1.5000 h1         1 B2S       0.047700
     33 H10         -3.0310    -1.1190     3.3600 ha         1 B2S       0.143000
     34 H16         -5.3350     1.1640     3.4620 hc         1 B2S       0.047033
     35 H16A        -4.7840    -0.2080     4.4320 hc         1 B2S       0.047033
     36 H16B        -4.6470     1.4370     5.0680 hc         1 B2S       0.047033
     37 H7          -1.5470     2.3560     1.5350 h1         1 B2S       0.050700
     38 HO4         -1.1890     4.3340     2.6780 ho         1 B2S       0.417000
     39 H15          0.3150     2.0670     4.7750 h1         1 B2S       0.059700
     40 H15A         0.3360     0.2980     4.7600 h1         1 B2S       0.059700
     41 HO6         -1.3420     1.2040     6.1050 ho         1 B2S       0.404000
@<TRIPOS>BOND
     1     1     2 1
     2     1     3 1
     3     2     3 1
     4     3     4 1
     5     3     9 1
     6     4     5 1
     7     4     6 1
     8     4    19 1
     9     6     7 1
    10     7     8 1
    11     7     9 1
    12     9    10 1
    13    10    11 1
    14    11    12 1
    15    11    19 1
    16    12    13 2
    17    13    14 1
    18    13    15 1
    19    15    16 2
    20    15    17 1
    21    17    18 1
    22    17    19 1
    23    19    20 1
    24    20    21 1
    25     1    22 1
    26     1    23 1
    27     5    24 1
    28     5    25 1
    29     5    26 1
    30     6    27 1
    31     6    28 1
    32     7    29 1
    33     8    30 1
    34     9    31 1
    35    11    32 1
    36    12    33 1
    37    14    34 1
    38    14    35 1
    39    14    36 1
    40    17    37 1
    41    18    38 1
    42    20    39 1
    43    20    40 1
    44    21    41 1
@<TRIPOS>SUBSTRUCTURE
     1 B2S         1 TEMP              0 ****  ****    0 ROOT
