@<TRIPOS>MOLECULE
B2S
   41    44     1     0     0
SMALL
bcc


@<TRIPOS>ATOM
      1 C13         0.2920    0.1410   -0.1260 cx        1 B2S      0.074400
      2 O2          1.7000    0.0660    0.1450 os        1 B2S     -0.379600
      3 C12         0.8020    0.0460    1.2620 cx        1 B2S      0.028800
      4 C5          0.8930    1.1690    2.3080 c3        1 B2S     -0.019000
      5 C14         1.2860    2.5050    1.7260 c3        1 B2S     -0.084100
      6 C4          2.0510    0.6150    3.1850 c3        1 B2S     -0.118400
      7 C3          1.9670   -0.9230    3.1230 c3        1 B2S      0.128100
      8 O3          1.7880   -1.5120    4.3870 oh        1 B2S     -0.587800
      9 C2          0.8060   -1.2100    2.1320 c3        1 B2S      0.120100
     10 O1         -0.4100   -1.2940    2.8930 os        1 B2S     -0.408600
     11 C11        -1.2210   -0.1290    2.7320 c3        1 B2S      0.159300
     12 C10        -2.4870   -0.2710    3.4970 c2        1 B2S     -0.116200
     13 C9         -3.3110    0.7890    3.5680 ce        1 B2S     -0.158400
     14 C16        -4.6400    0.7380    4.2180 c3        1 B2S     -0.052900
     15 C8         -2.8910    2.1060    3.0330 c         1 B2S      0.548300
     16 O5         -3.6550    3.0760    3.0080 o         1 B2S     -0.513100
     17 C7         -1.4540    2.2890    2.5240 c3        1 B2S      0.074100
     18 O4         -0.9980    3.5900    2.8330 oh        1 B2S     -0.578800
     19 C6         -0.4840    1.2010    3.0490 c3        1 B2S     -0.080000
     20 C15        -0.2340    1.4380    4.5460 c3        1 B2S      0.135400
     21 O6         -1.3890    2.0000    5.1550 oh        1 B2S     -0.619800
     22 H13        -0.0480    1.1130   -0.5310 h1        1 B2S      0.085700
     23 H13A       -0.1280   -0.7480   -0.6320 h1        1 B2S      0.085700
     24 H14         2.2700    2.4170    1.2030 hc        1 B2S      0.052033
     25 H14A        1.3630    3.2670    2.5390 hc        1 B2S      0.052033
     26 H14B        0.5310    2.8620    0.9850 hc        1 B2S      0.052033
     27 H4          3.0200    0.9420    2.7260 hc        1 B2S      0.067200
     28 H4A         2.0560    0.9700    4.2390 hc        1 B2S      0.067200
     29 H3          2.9260   -1.3630    2.7350 h1        1 B2S      0.090700
     30 HO3         0.8570   -1.4230    4.6330 ho        1 B2S      0.413000
     31 H2          0.9080   -2.1740    1.5820 h1        1 B2S      0.097700
     32 H11        -1.5260   -0.0920    1.6350 h1        1 B2S      0.055700
     33 H10        -2.7200   -1.2580    3.9190 ha        1 B2S      0.156000
     34 H16        -4.6330    1.3700    5.1410 hc        1 B2S      0.053033
     35 H16A       -4.9170   -0.3070    4.4980 hc        1 B2S      0.053033
     36 H16B       -5.4180    1.1500    3.5260 hc        1 B2S      0.053033
     37 H7         -1.4800    2.2530    1.3960 h1        1 B2S      0.087700
     38 HO4        -1.2570    3.7820    3.7460 ho        1 B2S      0.423000
     39 H15         0.0360    0.4700    5.0450 h1        1 B2S      0.042700
     40 H15A        0.5970    2.1900    4.6630 h1        1 B2S      0.042700
     41 HO6        -1.2450    1.9600    6.1070 ho        1 B2S      0.415000
@<TRIPOS>BOND
     1    1    2 1   
     2    1    3 1   
     3    1   22 1   
     4    1   23 1   
     5    2    3 1   
     6    3    4 1   
     7    3    9 1   
     8    4    5 1   
     9    4    6 1   
    10    4   19 1   
    11    5   24 1   
    12    5   25 1   
    13    5   26 1   
    14    6    7 1   
    15    6   27 1   
    16    6   28 1   
    17    7    8 1   
    18    7    9 1   
    19    7   29 1   
    20    8   30 1   
    21    9   10 1   
    22    9   31 1   
    23   10   11 1   
    24   11   12 1   
    25   11   19 1   
    26   11   32 1   
    27   12   13 2   
    28   12   33 1   
    29   13   14 1   
    30   13   15 1   
    31   14   34 1   
    32   14   35 1   
    33   14   36 1   
    34   15   16 2   
    35   15   17 1   
    36   17   18 1   
    37   17   19 1   
    38   17   37 1   
    39   18   38 1   
    40   19   20 1   
    41   20   21 1   
    42   20   39 1   
    43   20   40 1   
    44   21   41 1   
@<TRIPOS>SUBSTRUCTURE
     1 B2S         1 TEMP              0 ****  ****    0 ROOT
