@<TRIPOS>MOLECULE
molecule
   25    26     1     0     0
SMALL
bcc


@<TRIPOS>ATOM
      1 C1           0.0000     0.0000     0.0000 c3         1 B2T      -0.025000
      2 S2           1.8100     0.0000     0.0000 ss         1 B2T      -0.239400
      3 C3           2.1170     0.0000     1.7360 ca         1 B2T       0.828300
      4 N4           3.3660    -0.0000     2.1900 nb         1 B2T      -0.755000
      5 N5           1.0980     0.0060     2.5910 nb         1 B2T      -0.823000
      6 C6           1.3280     0.0070     3.9000 ca         1 B2T       0.982900
      7 N7           0.2710     0.0140     4.7860 nv         1 B2T      -1.061500
      8 N10          2.5770     0.0020     4.3550 nb         1 B2T      -0.809000
      9 C11          3.5970     0.0010     3.5000 cp         1 B2T       0.794500
     10 C12          4.9890    -0.0010     4.0080 cp         1 B2T      -0.151500
     11 C13          5.2350     0.0010     5.3800 ca         1 B2T      -0.068000
     12 C14          6.5330    -0.0010     5.8470 ca         1 B2T      -0.148000
     13 C15          7.5920    -0.0020     4.9560 ca         1 B2T      -0.097000
     14 C16          7.3560    -0.0030     3.5930 ca         1 B2T      -0.141000
     15 C17          6.0610    -0.0080     3.1140 ca         1 B2T       0.070400
     16 Cl18         5.7670    -0.0160     1.4020 cl         1 B2T      -0.059400
     17 H1          -0.3610     0.8850     0.5090 h1         1 B2T       0.072700
     18 H1A         -0.3610    -0.8840     0.5120 h1         1 B2T       0.072700
     19 H1B         -0.3610    -0.0020    -1.0210 h1         1 B2T       0.072700
     20 HN7         -0.1110    -0.8510     5.1170 hn         1 B2T       0.449800
     21 HN7A        -0.1050     0.8830     5.1110 hn         1 B2T       0.449800
     22 H13          4.4070     0.0020     6.0780 ha         1 B2T       0.161000
     23 H14          6.7240     0.0000     6.9130 ha         1 B2T       0.138000
     24 H15          8.6100    -0.0010     5.3270 ha         1 B2T       0.137000
     25 H16          8.1880    -0.0070     2.9000 ha         1 B2T       0.147000
@<TRIPOS>BOND
     1     1     2 1
     2     2     3 1
     3     3     4 ar
     4     3     5 ar
     5     4     9 ar
     6     5     6 ar
     7     6     7 1
     8     6     8 ar
     9     8     9 ar
    10     9    10 1
    11    10    11 ar
    12    10    15 ar
    13    11    12 ar
    14    12    13 ar
    15    13    14 ar
    16    14    15 ar
    17    15    16 1
    18     1    17 1
    19     1    18 1
    20     1    19 1
    21     7    20 1
    22     7    21 1
    23    11    22 1
    24    12    23 1
    25    13    24 1
    26    14    25 1
@<TRIPOS>SUBSTRUCTURE
     1 B2T         1 TEMP              0 ****  ****    0 ROOT
