@<TRIPOS>MOLECULE
B2T
   25    26     1     0     0
SMALL
bcc


@<TRIPOS>ATOM
      1 C1           0.0000     0.0000     0.0000 c3         1 B2T       0.115000
      2 S2           1.8100     0.0000     0.0000 ss         1 B2T      -0.368400
      3 C3           2.1170     0.0000     1.7360 ca         1 B2T       0.787300
      4 N4           3.3660    -0.0000     2.1900 nb         1 B2T      -0.647000
      5 N5           1.0980     0.0060     2.5910 nb         1 B2T      -0.712000
      6 C6           1.3280     0.0070     3.9000 ca         1 B2T       0.771900
      7 N7           0.2710     0.0140     4.7860 nv         1 B2T      -0.637500
      8 N10          2.5770     0.0020     4.3550 nb         1 B2T      -0.686000
      9 C11          3.5970     0.0010     3.5000 cp         1 B2T       0.724500
     10 C12          4.9890    -0.0010     4.0080 cp         1 B2T      -0.177500
     11 C13          5.2350     0.0010     5.3800 ca         1 B2T      -0.043000
     12 C14          6.5330    -0.0010     5.8470 ca         1 B2T      -0.121000
     13 C15          7.5920    -0.0020     4.9560 ca         1 B2T      -0.065000
     14 C16          7.3560    -0.0030     3.5930 ca         1 B2T      -0.119000
     15 C17          6.0610    -0.0080     3.1140 ca         1 B2T      -0.005600
     16 Cl18         5.7670    -0.0160     1.4020 cl         1 B2T       0.034600
     17 H1          -0.3610     0.8850     0.5090 h1         1 B2T       0.041033
     18 H1A         -0.3610    -0.8840     0.5120 h1         1 B2T       0.041033
     19 H1B         -0.3610    -0.0020    -1.0210 h1         1 B2T       0.041033
     20 HN7         -0.1110    -0.8510     5.1170 hn         1 B2T       0.285800
     21 HN7A        -0.1050     0.8830     5.1110 hn         1 B2T       0.285800
     22 H13          4.4070     0.0020     6.0780 ha         1 B2T       0.126000
     23 H14          6.7240     0.0000     6.9130 ha         1 B2T       0.108000
     24 H15          8.6100    -0.0010     5.3270 ha         1 B2T       0.104000
     25 H16          8.1880    -0.0070     2.9000 ha         1 B2T       0.117000
@<TRIPOS>BOND
     1     1     2 1   
     2     1    17 1   
     3     1    18 1   
     4     1    19 1   
     5     2     3 1   
     6     3     4 ar  
     7     3     5 ar  
     8     4     9 ar  
     9     5     6 ar  
    10     6     7 1   
    11     6     8 ar  
    12     7    20 1   
    13     7    21 1   
    14     8     9 ar  
    15     9    10 1   
    16    10    11 ar  
    17    10    15 ar  
    18    11    12 ar  
    19    11    22 1   
    20    12    13 ar  
    21    12    23 1   
    22    13    14 ar  
    23    13    24 1   
    24    14    15 ar  
    25    14    25 1   
    26    15    16 1   
@<TRIPOS>SUBSTRUCTURE
     1 B2T         1 TEMP              0 ****  ****    0 ROOT
