@<TRIPOS>MOLECULE
molecule
   18    18     1     0     0
SMALL
bcc


@<TRIPOS>ATOM
      1 FAI          0.0000     0.0000     0.0000 f          1 B2W      -0.219967
      2 CAH          1.3990     0.0000     0.0000 c3         1 B2W       0.575600
      3 FAJ          1.8660     0.0000     1.3190 f          1 B2W      -0.219967
      4 FAK          1.8640    -1.1430    -0.6600 f          1 B2W      -0.219967
      5 CAF          1.9010     1.2300    -0.7120 ce         1 B2W       0.465600
      6 NAE          0.9820     1.9820    -1.1460 n2         1 B2W      -0.612900
      7 CAD          1.1000     3.2490    -1.8270 c3         1 B2W       0.116800
      8 CAC          2.2880     3.3080    -2.7660 c3         1 B2W       0.197800
      9 NAB          3.5410     3.3090    -2.0340 nu         1 B2W      -0.810000
     10 CAA          4.0280     2.2280    -1.3800 c2         1 B2W       0.152000
     11 CAG          3.2790     1.3240    -0.7610 ce         1 B2W      -0.405600
     12 H1           0.1970     3.4220    -2.3990 h1         1 B2W       0.071700
     13 H2           1.2050     4.0330    -1.0860 h1         1 B2W       0.071700
     14 H3           2.2250     4.2120    -3.3590 h1         1 B2W       0.059200
     15 H4           2.2630     2.4450    -3.4210 h1         1 B2W       0.059200
     16 H5           4.0740     4.1560    -2.0120 hn         1 B2W       0.436800
     17 H6           5.1020     2.0930    -1.3600 h4         1 B2W       0.138000
     18 H7           3.8210     0.5570    -0.2210 ha         1 B2W       0.145000
@<TRIPOS>BOND
     1     4     2 1
     2    10    11 2
     3    10     9 1
     4    11     5 1
     5     1     2 1
     6     2     5 1
     7     2     3 1
     8     9     8 1
     9     5     6 2
    10     8     7 1
    11     6     7 1
    12     7    12 1
    13     7    13 1
    14     8    14 1
    15     8    15 1
    16     9    16 1
    17    10    17 1
    18    11    18 1
@<TRIPOS>SUBSTRUCTURE
     1 B2W         1 TEMP              0 ****  ****    0 ROOT
