@<TRIPOS>MOLECULE
molecule
   36    39     1     0     0
SMALL
bcc


@<TRIPOS>ATOM
      1 C1           0.0000     0.0000     0.0000 c3         1 B2X       0.183700
      2 O2           1.4310     0.0000     0.0000 os         1 B2X      -0.409600
      3 C3           2.0200     0.0000     1.3030 c3         1 B2X       0.184700
      4 C4           1.5520    -1.2160     2.0600 ca         1 B2X      -0.107300
      5 C5           2.3150    -1.7710     3.0380 ca         1 B2X      -0.115000
      6 C6           1.8730    -2.8950     3.7350 ca         1 B2X      -0.119000
      7 C7           0.6670    -3.4680     3.4560 ca         1 B2X      -0.103000
      8 C8          -0.1440    -2.9220     2.4530 ca         1 B2X       0.008000
      9 C9           0.3040    -1.7820     1.7480 ca         1 B2X      -0.027000
     10 C10         -0.4970    -1.2180     0.7370 ca         1 B2X      -0.078300
     11 C11         -1.7010    -1.7730     0.4390 ca         1 B2X      -0.127000
     12 C12         -2.1610    -2.8980     1.1200 ca         1 B2X       0.076400
     13 Cl13        -3.7040    -3.5780     0.7080 cl         1 B2X      -0.081400
     14 C14         -1.4030    -3.4820     2.1230 cp         1 B2X      -0.125500
     15 C15         -1.9020    -4.6750     2.8410 cp         1 B2X       0.796500
     16 N16         -3.1400    -4.6880     3.3300 nb         1 B2X      -0.755000
     17 N17         -1.1160    -5.7380     2.9930 nb         1 B2X      -0.800000
     18 C18         -1.5640    -6.8100     3.6380 ca         1 B2X       0.977900
     19 N19         -0.7490    -7.9120     3.7960 nv         1 B2X      -1.055500
     20 N22         -2.8000    -6.8210     4.1310 nb         1 B2X      -0.823000
     21 C23         -3.5880    -5.7620     3.9740 ca         1 B2X       0.828300
     22 S24         -5.2260    -5.7790     4.6230 ss         1 B2X      -0.234400
     23 C25         -5.2550    -7.4330     5.3580 c3         1 B2X      -0.026000
     24 H1          -0.3610     0.8930     0.4950 h1         1 B2X       0.062700
     25 H1A         -0.3610    -0.0240    -1.0210 h1         1 B2X       0.062700
     26 H3           1.7190     0.8940     1.8350 h1         1 B2X       0.059700
     27 H3A          3.0990    -0.0260     1.2100 h1         1 B2X       0.059700
     28 H5           3.2770    -1.3360     3.2800 ha         1 B2X       0.131000
     29 H6           2.4970    -3.3200     4.5110 ha         1 B2X       0.133000
     30 H7           0.3390    -4.3410     4.0060 ha         1 B2X       0.152000
     31 H11         -2.3130    -1.3350    -0.3400 ha         1 B2X       0.147000
     32 HN19        -0.2990    -8.0790     4.6740 hn         1 B2X       0.450800
     33 HN1A        -0.6100    -8.5450     3.0330 hn         1 B2X       0.450800
     34 H25         -4.4850    -7.5050     6.1170 h1         1 B2X       0.073033
     35 H25A        -6.2240    -7.6110     5.8100 h1         1 B2X       0.073033
     36 H25B        -5.0740    -8.1740     4.5890 h1         1 B2X       0.073033
@<TRIPOS>BOND
     1     1     2 1
     2     1    10 1
     3     2     3 1
     4     3     4 1
     5     4     5 ar
     6     4     9 ar
     7     5     6 ar
     8     6     7 ar
     9     7     8 ar
    10     8     9 ar
    11     8    14 ar
    12     9    10 ar
    13    10    11 ar
    14    11    12 ar
    15    12    13 1
    16    12    14 ar
    17    14    15 1
    18    15    16 ar
    19    15    17 ar
    20    16    21 ar
    21    17    18 ar
    22    18    19 1
    23    18    20 ar
    24    20    21 ar
    25    21    22 1
    26    22    23 1
    27     1    24 1
    28     1    25 1
    29     3    26 1
    30     3    27 1
    31     5    28 1
    32     6    29 1
    33     7    30 1
    34    11    31 1
    35    19    32 1
    36    19    33 1
    37    23    34 1
    38    23    35 1
    39    23    36 1
@<TRIPOS>SUBSTRUCTURE
     1 B2X         1 TEMP              0 ****  ****    0 ROOT
