@<TRIPOS>MOLECULE
B2X
   36    39     1     0     0
SMALL
bcc


@<TRIPOS>ATOM
      1 C1           0.0000     0.0000     0.0000 c3         1 B2X       0.272700
      2 O2           1.4310     0.0000     0.0000 os         1 B2X      -0.403600
      3 C3           2.0200     0.0000     1.3030 c3         1 B2X       0.275700
      4 C4           1.5520    -1.2160     2.0600 ca         1 B2X      -0.115300
      5 C5           2.3150    -1.7710     3.0380 ca         1 B2X      -0.089000
      6 C6           1.8730    -2.8950     3.7350 ca         1 B2X      -0.089000
      7 C7           0.6670    -3.4680     3.4560 ca         1 B2X      -0.091000
      8 C8          -0.1440    -2.9220     2.4530 ca         1 B2X       0.012000
      9 C9           0.3040    -1.7820     1.7480 ca         1 B2X      -0.019000
     10 C10         -0.4970    -1.2180     0.7370 ca         1 B2X      -0.085300
     11 C11         -1.7010    -1.7730     0.4390 ca         1 B2X      -0.105000
     12 C12         -2.1610    -2.8980     1.1200 ca         1 B2X       0.008400
     13 Cl13        -3.7040    -3.5780     0.7080 cl         1 B2X       0.001600
     14 C14         -1.4030    -3.4820     2.1230 cp         1 B2X      -0.148500
     15 C15         -1.9020    -4.6750     2.8410 cp         1 B2X       0.722500
     16 N16         -3.1400    -4.6880     3.3300 nb         1 B2X      -0.636000
     17 N17         -1.1160    -5.7380     2.9930 nb         1 B2X      -0.680000
     18 C18         -1.5640    -6.8100     3.6380 ca         1 B2X       0.763900
     19 N19         -0.7490    -7.9120     3.7960 nv         1 B2X      -0.622500
     20 N22         -2.8000    -6.8210     4.1310 nb         1 B2X      -0.713000
     21 C23         -3.5880    -5.7620     3.9740 ca         1 B2X       0.783300
     22 S24         -5.2260    -5.7790     4.6230 ss         1 B2X      -0.364400
     23 C25         -5.2550    -7.4330     5.3580 c3         1 B2X       0.114000
     24 H1          -0.3610     0.8930     0.4950 h1         1 B2X       0.018200
     25 H1A         -0.3610    -0.0240    -1.0210 h1         1 B2X       0.018200
     26 H3           1.7190     0.8940     1.8350 h1         1 B2X       0.015700
     27 H3A          3.0990    -0.0260     1.2100 h1         1 B2X       0.015700
     28 H5           3.2770    -1.3360     3.2800 ha         1 B2X       0.104000
     29 H6           2.4970    -3.3200     4.5110 ha         1 B2X       0.102000
     30 H7           0.3390    -4.3410     4.0060 ha         1 B2X       0.122000
     31 H11         -2.3130    -1.3350    -0.3400 ha         1 B2X       0.118000
     32 HN19        -0.2990    -8.0790     4.6740 hn         1 B2X       0.285300
     33 HN1A        -0.6100    -8.5450     3.0330 hn         1 B2X       0.285300
     34 H25         -4.4850    -7.5050     6.1170 h1         1 B2X       0.041033
     35 H25A        -6.2240    -7.6110     5.8100 h1         1 B2X       0.041033
     36 H25B        -5.0740    -8.1740     4.5890 h1         1 B2X       0.041033
@<TRIPOS>BOND
     1     1     2 1   
     2     1    10 1   
     3     1    24 1   
     4     1    25 1   
     5     2     3 1   
     6     3     4 1   
     7     3    26 1   
     8     3    27 1   
     9     4     5 ar  
    10     4     9 ar  
    11     5     6 ar  
    12     5    28 1   
    13     6     7 ar  
    14     6    29 1   
    15     7     8 ar  
    16     7    30 1   
    17     8     9 ar  
    18     8    14 ar  
    19     9    10 ar  
    20    10    11 ar  
    21    11    12 ar  
    22    11    31 1   
    23    12    13 1   
    24    12    14 ar  
    25    14    15 1   
    26    15    16 ar  
    27    15    17 ar  
    28    16    21 ar  
    29    17    18 ar  
    30    18    19 1   
    31    18    20 ar  
    32    19    32 1   
    33    19    33 1   
    34    20    21 ar  
    35    21    22 1   
    36    22    23 1   
    37    23    34 1   
    38    23    35 1   
    39    23    36 1   
@<TRIPOS>SUBSTRUCTURE
     1 B2X         1 TEMP              0 ****  ****    0 ROOT
