@<TRIPOS>MOLECULE
molecule
   28    29     1     0     0
SMALL
bcc


@<TRIPOS>ATOM
      1 N1           0.0000     0.0000     0.0000 nz         1 B2Y      -0.807600
      2 C4           2.5170     0.4310     2.2310 ca         1 B2Y      -0.092000
      3 C5           2.9780     0.0000     3.4620 ca         1 B2Y      -0.115000
      4 C6           2.8970    -1.3370     3.8070 ca         1 B2Y      -0.075000
      5 C7           2.3530    -2.2470     2.9240 ca         1 B2Y      -0.103000
      6 C8           1.8860    -1.8180     1.6830 cp         1 B2Y      -0.011000
      7 C10          0.2170    -3.5800     1.1110 ca         1 B2Y      -0.134000
      8 C13          1.2880    -3.8340    -1.4340 ca         1 B2Y      -0.119500
      9 C2           1.4690     0.0000     0.0000 c3         1 B2Y       0.158100
     10 C3           1.9720    -0.4720     1.3400 ca         1 B2Y      -0.190300
     11 C9           1.3020    -2.7940     0.7290 cp         1 B2Y      -0.103000
     12 C11         -0.3240    -4.4850     0.2200 ca         1 B2Y      -0.119500
     13 C12          0.2100    -4.6120    -1.0500 ca         1 B2Y      -0.107000
     14 C14          1.8360    -2.9260    -0.5520 ca         1 B2Y      -0.134000
     15 HN1         -0.3340    -0.5610    -0.7580 hn         1 B2Y       0.454467
     16 HN1A        -0.3340     0.9380    -0.1070 hn         1 B2Y       0.454467
     17 H6           3.2590    -1.6700     4.7720 ha         1 B2Y       0.161000
     18 H7           2.2890    -3.2940     3.1950 ha         1 B2Y       0.163000
     19 H10         -0.2020    -3.4810     2.1050 ha         1 B2Y       0.140500
     20 H13          1.7020    -3.9380    -2.4300 ha         1 B2Y       0.152000
     21 H2           1.8300    -0.6650    -0.7750 hx         1 B2Y       0.112700
     22 H2A          1.8300     1.0040    -0.1880 hx         1 B2Y       0.112700
     23 H11         -1.1670    -5.0970     0.5150 ha         1 B2Y       0.152000
     24 H12         -0.2170    -5.3240    -1.7460 ha         1 B2Y       0.154000
     25 H14          2.6790    -2.3170    -0.8530 ha         1 B2Y       0.140500
     26 H4           2.5840     1.4790     1.9660 ha         1 B2Y       0.140000
     27 H131        -0.3340    -0.3270     0.8850 hn         1 B2Y       0.454467
     28 H5           3.4050     0.7120     4.1570 ha         1 B2Y       0.159000
@<TRIPOS>BOND
     1     1     9 1
     2     2     3 ar
     3     2    10 ar
     4     3     4 ar
     5     4     5 ar
     6     5     6 ar
     7     6    10 ar
     8     6    11 1
     9     7    11 ar
    10     7    12 ar
    11     8    13 ar
    12     8    14 ar
    13     9    10 1
    14    11    14 ar
    15    12    13 ar
    16     1    15 1
    17     1    16 1
    18     2    26 1
    19     3    28 1
    20     4    17 1
    21     5    18 1
    22     7    19 1
    23     8    20 1
    24     9    21 1
    25     9    22 1
    26    12    23 1
    27    13    24 1
    28    14    25 1
    29    27     1 1
@<TRIPOS>SUBSTRUCTURE
     1 B2Y         1 TEMP              0 ****  ****    0 ROOT
