@<TRIPOS>MOLECULE
molecule
   45    47     1     0     0
SMALL
bcc


@<TRIPOS>ATOM
      1 F            0.0000     0.0000     0.0000 f          1 B2Z      -0.137900
      2 C18          1.3510     0.0000     0.0000 ca         1 B2Z       0.136900
      3 C17          2.0440     0.0000     1.1980 ca         1 B2Z      -0.165000
      4 C16          3.4260    -0.0010     1.1980 ca         1 B2Z      -0.106000
      5 C15          4.1170    -0.0010     0.0000 ca         1 B2Z      -0.143000
      6 C14          3.4250    -0.0010    -1.1970 ca         1 B2Z      -0.104000
      7 C13          2.0440    -0.0070    -1.1980 ca         1 B2Z      -0.119300
      8 C1           1.2900    -0.0120    -2.5040 c3         1 B2Z      -0.012400
      9 C            1.6620     1.2330    -3.3120 c3         1 B2Z      -0.079100
     10 C2           1.6600    -1.2650    -3.3000 c3         1 B2Z      -0.149400
     11 C3           0.8180    -1.3350    -4.5480 c          1 B2Z       0.657100
     12 O            0.0030    -0.4660    -4.7770 o          1 B2Z      -0.607100
     13 N            0.9700    -2.3610    -5.4080 ns         1 B2Z      -0.586900
     14 C4           0.1520    -2.4270    -6.6210 c3         1 B2Z       0.166000
     15 C5          -1.1880    -3.0910    -6.2960 c3         1 B2Z      -0.104100
     16 C6           0.8710    -3.2360    -7.6690 ca         1 B2Z      -0.092300
     17 C11          0.8380    -2.8340    -8.9910 ca         1 B2Z      -0.114000
     18 C10          1.5000    -3.5790    -9.9550 ca         1 B2Z      -0.001400
     19 N1           1.6510    -3.4410   -11.3320 ns         1 B2Z      -0.446100
     20 C12          2.4050    -4.4600   -11.7810 c          1 B2Z       0.800500
     21 O1           2.7270    -4.6370   -12.9420 o          1 B2Z      -0.657500
     22 N2           2.7520    -5.2560   -10.7520 ns         1 B2Z      -0.448100
     23 C9           2.1990    -4.7310    -9.5860 ca         1 B2Z      -0.005400
     24 C8           2.2270    -5.1250    -8.2570 ca         1 B2Z      -0.121000
     25 C7           1.5690    -4.3740    -7.3030 ca         1 B2Z      -0.127000
     26 H17          1.5030     0.0000     2.1370 ha         1 B2Z       0.145000
     27 H16          3.9680    -0.0010     2.1350 ha         1 B2Z       0.136000
     28 H15          5.2000     0.0010    -0.0000 ha         1 B2Z       0.134000
     29 H14          3.9670    -0.0040    -2.1350 ha         1 B2Z       0.136000
     30 H1           0.2250    -0.0110    -2.3060 hc         1 B2Z       0.086700
     31 HC1          2.2260     0.9390    -4.1890 hc         1 B2Z       0.041367
     32 HC2          2.2640     1.8940    -2.7000 hc         1 B2Z       0.041367
     33 HC3          0.7590     1.7470    -3.6180 hc         1 B2Z       0.041367
     34 H21C         1.4800    -2.1450    -2.6930 hc         1 B2Z       0.062200
     35 H22C         2.7070    -1.2240    -3.5730 hc         1 B2Z       0.062200
     36 H            1.6730    -3.0540    -5.2400 hn         1 B2Z       0.314500
     37 H4          -0.0220    -1.4260    -6.9950 h1         1 B2Z       0.084700
     38 H51C        -1.1910    -3.4110    -5.2610 hc         1 B2Z       0.047033
     39 H52C        -1.3310    -3.9500    -6.9400 hc         1 B2Z       0.047033
     40 H53C        -1.9910    -2.3820    -6.4570 hc         1 B2Z       0.047033
     41 H11          0.3640    -1.8980    -9.2600 ha         1 B2Z       0.143000
     42 H7           1.5950    -4.6800    -6.2640 ha         1 B2Z       0.134000
     43 HA           1.2610    -2.7090   -11.8930 hn         1 B2Z       0.363500
     44 H2           3.3110    -6.0830   -10.8140 hn         1 B2Z       0.362500
     45 H8           2.7720    -6.0150    -7.9670 ha         1 B2Z       0.137000
@<TRIPOS>BOND
     1     1     2 1
     2     2     3 ar
     3     2     7 ar
     4     3     4 ar
     5     4     5 ar
     6     5     6 ar
     7     6     7 ar
     8     7     8 1
     9     8     9 1
    10     8    10 1
    11    10    11 1
    12    11    12 2
    13    11    13 1
    14    13    14 1
    15    14    15 1
    16    14    16 1
    17    16    17 ar
    18    16    25 ar
    19    17    18 ar
    20    18    19 1
    21    18    23 ar
    22    19    20 1
    23    20    21 2
    24    20    22 1
    25    22    23 1
    26    23    24 ar
    27    24    25 ar
    28     3    26 1
    29     4    27 1
    30     5    28 1
    31     6    29 1
    32     8    30 1
    33     9    31 1
    34     9    32 1
    35     9    33 1
    36    10    34 1
    37    10    35 1
    38    13    36 1
    39    14    37 1
    40    15    38 1
    41    15    39 1
    42    15    40 1
    43    17    41 1
    44    25    42 1
    45    19    43 1
    46    22    44 1
    47    24    45 1
@<TRIPOS>SUBSTRUCTURE
     1 B2Z         1 TEMP              0 ****  ****    0 ROOT
