@<TRIPOS>MOLECULE
B2Z
   45    47     1     0     0
SMALL
bcc


@<TRIPOS>ATOM
      1 F            0.0000     0.0000     0.0000 f          1 B2Z      -0.125900
      2 C18          1.3510     0.0000     0.0000 ca         1 B2Z       0.111900
      3 C17          2.0440     0.0000     1.1980 ca         1 B2Z      -0.130000
      4 C16          3.4260    -0.0010     1.1980 ca         1 B2Z      -0.079000
      5 C15          4.1170    -0.0010     0.0000 ca         1 B2Z      -0.112000
      6 C14          3.4250    -0.0010    -1.1970 ca         1 B2Z      -0.079000
      7 C13          2.0440    -0.0070    -1.1980 ca         1 B2Z      -0.117300
      8 C1           1.2900    -0.0120    -2.5040 c3         1 B2Z       0.020600
      9 C            1.6620     1.2330    -3.3120 c3         1 B2Z       0.002900
     10 C2           1.6600    -1.2650    -3.3000 c3         1 B2Z      -0.095400
     11 C3           0.8180    -1.3350    -4.5480 c          1 B2Z       0.575100
     12 O            0.0030    -0.4660    -4.7770 o          1 B2Z      -0.644100
     13 N            0.9700    -2.3610    -5.4080 ns         1 B2Z      -0.207900
     14 C4           0.1520    -2.4270    -6.6210 c3         1 B2Z       0.083000
     15 C5          -1.1880    -3.0910    -6.2960 c3         1 B2Z      -0.013100
     16 C6           0.8710    -3.2360    -7.6690 ca         1 B2Z      -0.103300
     17 C11          0.8380    -2.8340    -8.9910 ca         1 B2Z      -0.067000
     18 C10          1.5000    -3.5790    -9.9550 ca         1 B2Z      -0.161400
     19 N1           1.6510    -3.4410   -11.3320 ns         1 B2Z       0.026900
     20 C12          2.4050    -4.4600   -11.7810 c          1 B2Z       0.554500
     21 O1           2.7270    -4.6370   -12.9420 o          1 B2Z      -0.713500
     22 N2           2.7520    -5.2560   -10.7520 ns         1 B2Z       0.023900
     23 C9           2.1990    -4.7310    -9.5860 ca         1 B2Z      -0.164400
     24 C8           2.2270    -5.1250    -8.2570 ca         1 B2Z      -0.076000
     25 C7           1.5690    -4.3740    -7.3030 ca         1 B2Z      -0.104000
     26 H17          1.5030     0.0000     2.1370 ha         1 B2Z       0.119000
     27 H16          3.9680    -0.0010     2.1350 ha         1 B2Z       0.106000
     28 H15          5.2000     0.0010    -0.0000 ha         1 B2Z       0.106000
     29 H14          3.9670    -0.0040    -2.1350 ha         1 B2Z       0.111000
     30 H1           0.2250    -0.0110    -2.3060 hc         1 B2Z       0.059700
     31 HC1          2.2260     0.9390    -4.1890 hc         1 B2Z       0.011033
     32 HC2          2.2640     1.8940    -2.7000 hc         1 B2Z       0.011033
     33 HC3          0.7590     1.7470    -3.6180 hc         1 B2Z       0.011033
     34 H21C         1.4800    -2.1450    -2.6930 hc         1 B2Z       0.030700
     35 H22C         2.7070    -1.2240    -3.5730 hc         1 B2Z       0.030700
     36 H            1.6730    -3.0540    -5.2400 hn         1 B2Z       0.180500
     37 H4          -0.0220    -1.4260    -6.9950 h1         1 B2Z       0.058700
     38 H51C        -1.1910    -3.4110    -5.2610 hc         1 B2Z       0.014033
     39 H52C        -1.3310    -3.9500    -6.9400 hc         1 B2Z       0.014033
     40 H53C        -1.9910    -2.3820    -6.4570 hc         1 B2Z       0.014033
     41 H11          0.3640    -1.8980    -9.2600 ha         1 B2Z       0.115000
     42 H7           1.5950    -4.6800    -6.2640 ha         1 B2Z       0.109000
     43 HA           1.2610    -2.7090   -11.8930 hn         1 B2Z       0.193500
     44 H2           3.3110    -6.0830   -10.8140 hn         1 B2Z       0.192500
     45 H8           2.7720    -6.0150    -7.9670 ha         1 B2Z       0.107000
@<TRIPOS>BOND
     1     1     2 1   
     2     2     3 ar  
     3     2     7 ar  
     4     3     4 ar  
     5     3    26 1   
     6     4     5 ar  
     7     4    27 1   
     8     5     6 ar  
     9     5    28 1   
    10     6     7 ar  
    11     6    29 1   
    12     7     8 1   
    13     8     9 1   
    14     8    10 1   
    15     8    30 1   
    16     9    31 1   
    17     9    32 1   
    18     9    33 1   
    19    10    11 1   
    20    10    34 1   
    21    10    35 1   
    22    11    12 2   
    23    11    13 1   
    24    13    14 1   
    25    13    36 1   
    26    14    15 1   
    27    14    16 1   
    28    14    37 1   
    29    15    38 1   
    30    15    39 1   
    31    15    40 1   
    32    16    17 ar  
    33    16    25 ar  
    34    17    18 ar  
    35    17    41 1   
    36    18    19 1   
    37    18    23 ar  
    38    19    20 1   
    39    19    43 1   
    40    20    21 2   
    41    20    22 1   
    42    22    23 1   
    43    22    44 1   
    44    23    24 ar  
    45    24    25 ar  
    46    24    45 1   
    47    25    42 1   
@<TRIPOS>SUBSTRUCTURE
     1 B2Z         1 TEMP              0 ****  ****    0 ROOT
