@<TRIPOS>MOLECULE
B32
   70    72     1     0     0
SMALL
bcc


@<TRIPOS>ATOM
      1 CAR          0.0000     0.0000     0.0000 c3         1 B32      -0.030400
      2 CAS          1.5310     0.0000     0.0000 c3         1 B32      -0.029400
      3 CAT          2.0390     0.0000     1.4430 c3         1 B32      -0.029400
      4 CAU          3.5700    -0.0000     1.4430 c3         1 B32      -0.029400
      5 CAV          4.0790     0.0000     2.8860 c3         1 B32      -0.028400
      6 CAW          5.6100     0.0000     2.8860 c3         1 B32      -0.027400
      7 CAX          6.1190    -0.0000     4.3290 c3         1 B32      -0.030400
      8 CAY          7.6500     0.0000     4.3290 c3         1 B32       0.144800
      9 NAZ          8.1380    -0.0000     5.7150 n7         1 B32      -0.589200
     10 CBA          9.6070     0.0000     5.7540 c3         1 B32       0.162800
     11 CBB         10.0780     0.0000     7.2100 c3         1 B32       0.081700
     12 SD          11.8910     0.0010     7.2590 ss         1 B32      -0.385200
     13 C5'         12.2510    -0.0000     9.0360 c3         1 B32       0.078700
     14 C4'         13.7660     0.0000     9.2500 c3         1 B32       0.188100
     15 O4'         14.3290     1.2700     8.8540 os         1 B32      -0.385600
     16 C3'         14.0980    -0.1270    10.7530 c3         1 B32       0.124100
     17 O3'         14.4160    -1.4810    11.0830 oh         1 B32      -0.547800
     18 C2'         15.3330     0.7820    10.9430 c3         1 B32       0.124100
     19 O2'         16.4520     0.0170    11.3970 oh         1 B32      -0.538800
     20 C1'         15.6020     1.3500     9.5330 c3         1 B32       0.151800
     21 N9          16.0460     2.7430     9.6200 na         1 B32       0.205000
     22 C8          15.2490     3.8490     9.5760 cc         1 B32       0.249700
     23 N7          15.9750     4.9240     9.6810 nd         1 B32      -0.496100
     24 C5          17.2790     4.5780     9.7990 ca         1 B32      -0.246200
     25 C4          17.3400     3.1740     9.7670 ca         1 B32       0.275800
     26 N3          18.5220     2.5770     9.8720 nb         1 B32      -0.676000
     27 C2          19.6230     3.2870    10.0070 ca         1 B32       0.691900
     28 N1          19.6150     4.6070    10.0460 nb         1 B32      -0.746000
     29 C6          18.4810     5.2920     9.9410 ca         1 B32       0.591200
     30 N6          18.4830     6.6740     9.9830 nv         1 B32      -0.480500
     31 CAP         -2.0400    -0.0000    -1.4430 c3         1 B32       0.005900
     32 CAQ         -0.5090    -0.0000    -1.4430 c3         1 B32      -0.028400
     33 HAR         -0.3610    -0.8840     0.5110 hc         1 B32       0.014700
     34 HARA        -0.3610     0.8850     0.5100 hc         1 B32       0.014700
     35 HAS          1.8920     0.8850    -0.5100 hc         1 B32       0.014700
     36 HASA         1.8920    -0.8850    -0.5100 hc         1 B32       0.014700
     37 HAT          1.6780    -0.8850     1.9530 hc         1 B32       0.014700
     38 HATA         1.6780     0.8850     1.9530 hc         1 B32       0.014700
     39 HAU          3.9310    -0.8850     0.9320 hc         1 B32       0.015200
     40 HAUA         3.9310     0.8840     0.9320 hc         1 B32       0.015200
     41 HAV          3.7180     0.8850     3.3960 hc         1 B32       0.015700
     42 HAVA         3.7180    -0.8840     3.3970 hc         1 B32       0.015700
     43 HAW          5.9710     0.8850     2.3760 hc         1 B32       0.015200
     44 HAWA         5.9710    -0.8840     2.3750 hc         1 B32       0.015200
     45 HAX          5.7580    -0.8850     4.8390 hc         1 B32       0.019200
     46 HAXA         5.7580     0.8840     4.8390 hc         1 B32       0.019200
     47 HAY          8.0110     0.8850     3.8190 h1         1 B32       0.009200
     48 HAYA         8.0110    -0.8840     3.8180 h1         1 B32       0.009200
     49 HNAZ         7.7920    -0.8100     6.1910 hn         1 B32       0.251800
     50 HBA          9.9820     0.8840     5.2530 h1         1 B32       0.021700
     51 HBAA         9.9820    -0.8850     5.2540 h1         1 B32       0.021700
     52 HBB          9.7030    -0.8840     7.7110 h1         1 B32       0.037200
     53 HBBA         9.7030     0.8850     7.7100 h1         1 B32       0.037200
     54 H5'         11.8220     0.8840     9.4920 h1         1 B32       0.041200
     55 H5'A        11.8220    -0.8850     9.4910 h1         1 B32       0.041200
     56 H4'         14.2310    -0.8050     8.6950 h1         1 B32       0.059700
     57 H3'         13.2700     0.2320    11.3530 h1         1 B32       0.014700
     58 HO3'        13.8860    -1.7590    11.8120 ho         1 B32       0.387000
     59 H2'         15.1080     1.5830    11.6360 h1         1 B32       0.019700
     60 HO2'        16.5180     0.0830    12.3350 ho         1 B32       0.392000
     61 H1'         16.3390     0.7450     9.0190 h2         1 B32       0.073700
     62 H8          14.1710     3.8340     9.4680 h5         1 B32       0.039800
     63 H2          20.5700     2.7680    10.0970 h5         1 B32      -0.004900
     64 HN6         17.6220     7.1780     9.9060 hn         1 B32       0.275800
     65 HN6A        19.3450     7.1710    10.0910 hn         1 B32       0.275800
     66 HAP         -2.4010     0.8990    -0.9580 hc         1 B32       0.000033
     67 HAPA        -2.4010    -0.0290    -2.4640 hc         1 B32       0.000033
     68 HAPB        -2.4010    -0.8700    -0.9080 hc         1 B32       0.000033
     69 HAQ         -0.1480    -0.8850    -1.9540 hc         1 B32       0.011700
     70 HAQA        -0.1480     0.8840    -1.9540 hc         1 B32       0.011700
@<TRIPOS>BOND
     1     1     2 1   
     2     1    32 1   
     3     1    33 1   
     4     1    34 1   
     5     2     3 1   
     6     2    35 1   
     7     2    36 1   
     8     3     4 1   
     9     3    37 1   
    10     3    38 1   
    11     4     5 1   
    12     4    39 1   
    13     4    40 1   
    14     5     6 1   
    15     5    41 1   
    16     5    42 1   
    17     6     7 1   
    18     6    43 1   
    19     6    44 1   
    20     7     8 1   
    21     7    45 1   
    22     7    46 1   
    23     8     9 1   
    24     8    47 1   
    25     8    48 1   
    26     9    10 1   
    27     9    49 1   
    28    10    11 1   
    29    10    50 1   
    30    10    51 1   
    31    11    12 1   
    32    11    52 1   
    33    11    53 1   
    34    12    13 1   
    35    13    14 1   
    36    13    54 1   
    37    13    55 1   
    38    14    15 1   
    39    14    16 1   
    40    14    56 1   
    41    15    20 1   
    42    16    17 1   
    43    16    18 1   
    44    16    57 1   
    45    17    58 1   
    46    18    19 1   
    47    18    20 1   
    48    18    59 1   
    49    19    60 1   
    50    20    21 1   
    51    20    61 1   
    52    21    22 1   
    53    21    25 1   
    54    22    23 2   
    55    22    62 1   
    56    23    24 1   
    57    24    25 ar  
    58    24    29 ar  
    59    25    26 ar  
    60    26    27 ar  
    61    27    28 ar  
    62    27    63 1   
    63    28    29 ar  
    64    29    30 1   
    65    30    64 1   
    66    30    65 1   
    67    31    32 1   
    68    31    66 1   
    69    31    67 1   
    70    31    68 1   
    71    32    69 1   
    72    32    70 1   
@<TRIPOS>SUBSTRUCTURE
     1 B32         1 TEMP              0 ****  ****    0 ROOT
