@<TRIPOS>MOLECULE
molecule
   70    72     1     0     0
SMALL
bcc


@<TRIPOS>ATOM
      1 CAR          0.0000     0.0000     0.0000 c3         1 B32      -0.081400
      2 CAS          1.5310     0.0000     0.0000 c3         1 B32      -0.082400
      3 CAT          2.0390     0.0000     1.4430 c3         1 B32      -0.082400
      4 CAU          3.5700    -0.0000     1.4430 c3         1 B32      -0.082400
      5 CAV          4.0790     0.0000     2.8860 c3         1 B32      -0.080400
      6 CAW          5.6100     0.0000     2.8860 c3         1 B32      -0.082400
      7 CAX          6.1190    -0.0000     4.3290 c3         1 B32      -0.082400
      8 CAY          7.6500     0.0000     4.3290 c3         1 B32       0.157800
      9 NAZ          8.1380    -0.0000     5.7150 n7         1 B32      -0.820200
     10 CBA          9.6070     0.0000     5.7540 c3         1 B32       0.171800
     11 CBB         10.0780     0.0000     7.2100 c3         1 B32       0.007700
     12 SD          11.8910     0.0010     7.2590 ss         1 B32      -0.322200
     13 C5'         12.2510    -0.0000     9.0360 c3         1 B32       0.013700
     14 C4'         13.7660     0.0000     9.2500 c3         1 B32       0.145100
     15 O4'         14.3290     1.2700     8.8540 os         1 B32      -0.402600
     16 C3'         14.0980    -0.1270    10.7530 c3         1 B32       0.087100
     17 O3'         14.4160    -1.4810    11.0830 oh         1 B32      -0.569800
     18 C2'         15.3330     0.7820    10.9430 c3         1 B32       0.089100
     19 O2'         16.4520     0.0170    11.3970 oh         1 B32      -0.559800
     20 C1'         15.6020     1.3500     9.5330 c3         1 B32       0.259800
     21 N9          16.0460     2.7430     9.6200 na         1 B32      -0.254000
     22 C8          15.2490     3.8490     9.5760 cc         1 B32       0.428700
     23 N7          15.9750     4.9240     9.6810 nd         1 B32      -0.588100
     24 C5          17.2790     4.5780     9.7990 ca         1 B32      -0.213200
     25 C4          17.3400     3.1740     9.7670 ca         1 B32       0.479800
     26 N3          18.5220     2.5770     9.8720 nb         1 B32      -0.787000
     27 C2          19.6230     3.2870    10.0070 ca         1 B32       0.741900
     28 N1          19.6150     4.6070    10.0460 nb         1 B32      -0.837000
     29 C6          18.4810     5.2920     9.9410 ca         1 B32       0.788200
     30 N6          18.4830     6.6740     9.9830 nv         1 B32      -0.983500
     31 CAP         -2.0400    -0.0000    -1.4430 c3         1 B32      -0.092100
     32 CAQ         -0.5090    -0.0000    -1.4430 c3         1 B32      -0.084400
     33 HAR         -0.3610    -0.8840     0.5110 hc         1 B32       0.040700
     34 HARA        -0.3610     0.8850     0.5100 hc         1 B32       0.040700
     35 HAS          1.8920     0.8850    -0.5100 hc         1 B32       0.041200
     36 HASA         1.8920    -0.8850    -0.5100 hc         1 B32       0.041200
     37 HAT          1.6780    -0.8850     1.9530 hc         1 B32       0.041200
     38 HATA         1.6780     0.8850     1.9530 hc         1 B32       0.041200
     39 HAU          3.9310    -0.8850     0.9320 hc         1 B32       0.041200
     40 HAUA         3.9310     0.8840     0.9320 hc         1 B32       0.041200
     41 HAV          3.7180     0.8850     3.3960 hc         1 B32       0.041700
     42 HAVA         3.7180    -0.8840     3.3970 hc         1 B32       0.041700
     43 HAW          5.9710     0.8850     2.3760 hc         1 B32       0.042200
     44 HAWA         5.9710    -0.8840     2.3750 hc         1 B32       0.042200
     45 HAX          5.7580    -0.8850     4.8390 hc         1 B32       0.047700
     46 HAXA         5.7580     0.8840     4.8390 hc         1 B32       0.047700
     47 HAY          8.0110     0.8850     3.8190 h1         1 B32       0.034700
     48 HAYA         8.0110    -0.8840     3.8180 h1         1 B32       0.034700
     49 HNAZ         7.7920    -0.8100     6.1910 hn         1 B32       0.350800
     50 HBA          9.9820     0.8840     5.2530 h1         1 B32       0.046200
     51 HBAA         9.9820    -0.8850     5.2540 h1         1 B32       0.046200
     52 HBB          9.7030    -0.8840     7.7110 h1         1 B32       0.062700
     53 HBBA         9.7030     0.8850     7.7100 h1         1 B32       0.062700
     54 H5'         11.8220     0.8840     9.4920 h1         1 B32       0.066700
     55 H5'A        11.8220    -0.8850     9.4910 h1         1 B32       0.066700
     56 H4'         14.2310    -0.8050     8.6950 h1         1 B32       0.092700
     57 H3'         13.2700     0.2320    11.3530 h1         1 B32       0.047700
     58 HO3'        13.8860    -1.7590    11.8120 ho         1 B32       0.403000
     59 H2'         15.1080     1.5830    11.6360 h1         1 B32       0.056700
     60 HO2'        16.5180     0.0830    12.3350 ho         1 B32       0.408000
     61 H1'         16.3390     0.7450     9.0190 h2         1 B32       0.114700
     62 H8          14.1710     3.8340     9.4680 h5         1 B32       0.087800
     63 H2          20.5700     2.7680    10.0970 h5         1 B32       0.062100
     64 HN6         17.6220     7.1780     9.9060 hn         1 B32       0.450300
     65 HN6A        19.3450     7.1710    10.0910 hn         1 B32       0.450300
     66 HAP         -2.4010     0.8990    -0.9580 hc         1 B32       0.032367
     67 HAPA        -2.4010    -0.0290    -2.4640 hc         1 B32       0.032367
     68 HAPB        -2.4010    -0.8700    -0.9080 hc         1 B32       0.032367
     69 HAQ         -0.1480    -0.8850    -1.9540 hc         1 B32       0.039700
     70 HAQA        -0.1480     0.8840    -1.9540 hc         1 B32       0.039700
@<TRIPOS>BOND
     1     1     2 1
     2     1    32 1
     3     1    33 1
     4     1    34 1
     5     2     3 1
     6     2    35 1
     7     2    36 1
     8     3     4 1
     9     3    37 1
    10     3    38 1
    11     4     5 1
    12     4    39 1
    13     4    40 1
    14     5     6 1
    15     5    41 1
    16     5    42 1
    17     6     7 1
    18     6    43 1
    19     6    44 1
    20     7     8 1
    21     7    45 1
    22     7    46 1
    23     8     9 1
    24     8    47 1
    25     8    48 1
    26     9    10 1
    27     9    49 1
    28    10    11 1
    29    10    50 1
    30    10    51 1
    31    11    12 1
    32    11    52 1
    33    11    53 1
    34    13    12 1
    35    13    14 1
    36    13    54 1
    37    13    55 1
    38    15    14 1
    39    14    16 1
    40    14    56 1
    41    15    20 1
    42    16    18 1
    43    16    17 1
    44    16    57 1
    45    17    58 1
    46    20    18 1
    47    18    19 1
    48    18    59 1
    49    19    60 1
    50    21    20 1
    51    20    61 1
    52    22    21 1
    53    21    25 1
    54    23    22 2
    55    22    62 1
    56    23    24 1
    57    24    29 ar
    58    24    25 ar
    59    25    26 ar
    60    26    27 ar
    61    28    27 ar
    62    27    63 1
    63    29    28 ar
    64    30    29 1
    65    30    64 1
    66    30    65 1
    67    31    32 1
    68    31    66 1
    69    31    67 1
    70    31    68 1
    71    32    69 1
    72    32    70 1
@<TRIPOS>SUBSTRUCTURE
     1 B32         1 TEMP              0 ****  ****    0 ROOT
