@<TRIPOS>MOLECULE
B33
   41    40     1     0     0
SMALL
bcc


@<TRIPOS>ATOM
      1 C10          0.0000     0.0000     0.0000 c3         1 B33       0.137800
      2 C12         -1.9570     0.0010     1.3140 c3         1 B33       0.134800
      3 C13         -2.5370     0.0010     2.7300 c3         1 B33      -0.030400
      4 C1           9.2430    -0.0030    -6.0330 c3         1 B33       0.003900
      5 C2           7.7200    -0.0030    -5.8850 c3         1 B33       0.136800
      6 N3           7.3670    -0.0030    -4.4600 n7         1 B33      -0.579200
      7 C4           5.8990    -0.0020    -4.3880 c3         1 B33       0.137800
      8 C5           5.4600    -0.0020    -2.9230 c3         1 B33      -0.033400
      9 C6           3.9310    -0.0020    -2.8490 c3         1 B33       0.137800
     10 N7           3.5090    -0.0010    -1.4430 n7         1 B33      -0.578200
     11 C8           2.0400    -0.0010    -1.4420 c3         1 B33       0.137800
     12 C9           1.5300     0.0000     0.0000 c3         1 B33      -0.033400
     13 N11         -0.4900     0.0000     1.3850 n7         1 B33      -0.578200
     14 C14         -4.0650     0.0010     2.6550 c3         1 B33       0.007900
     15 H101        -0.3610    -0.8840    -0.5110 h1         1 B33       0.007200
     16 H102        -0.3610     0.8840    -0.5110 h1         1 B33       0.007200
     17 H121        -2.2930    -0.8840     0.7860 h1         1 B33       0.007700
     18 H122        -2.2930     0.8850     0.7860 h1         1 B33       0.007700
     19 H131        -2.2010    -0.8830     3.2580 hc         1 B33       0.017200
     20 H132        -2.2010     0.8860     3.2580 hc         1 B33       0.017200
     21 H11          9.6580     0.8360    -5.4890 hc         1 B33       0.004700
     22 H12          9.6440    -0.9270    -5.6330 hc         1 B33       0.004700
     23 H13          9.5040     0.0800    -7.0810 hc         1 B33       0.004700
     24 H21          7.3110     0.8820    -6.3590 h1         1 B33       0.004700
     25 H22          7.3110    -0.8870    -6.3590 h1         1 B33       0.004700
     26 HN3          7.7210    -0.8330    -4.0280 hn         1 B33       0.254800
     27 H41          5.5130    -0.8860    -4.8810 h1         1 B33       0.006700
     28 H42          5.5140     0.8830    -4.8810 h1         1 B33       0.006700
     29 H51          5.8460     0.8820    -2.4300 hc         1 B33       0.025200
     30 H52          5.8450    -0.8870    -2.4310 hc         1 B33       0.025200
     31 H61          3.5460    -0.8860    -3.3410 h1         1 B33       0.007200
     32 H62          3.5460     0.8830    -3.3420 h1         1 B33       0.007200
     33 HN7          3.8430     0.8290    -0.9940 hn         1 B33       0.256800
     34 H81          1.6790     0.8830    -1.9530 h1         1 B33       0.007200
     35 H82          1.6790    -0.8860    -1.9520 h1         1 B33       0.007200
     36 H91          1.8910    -0.8840     0.5110 hc         1 B33       0.025200
     37 H92          1.8910     0.8850     0.5100 hc         1 B33       0.025200
     38 HN11        -0.1790    -0.8300     1.8490 hn         1 B33       0.254800
     39 H141        -4.4010    -0.8840     2.1290 hc         1 B33       0.000700
     40 H142        -4.4000     0.8850     2.1260 hc         1 B33       0.000700
     41 H143        -4.4760     0.0040     3.6580 hc         1 B33       0.000700
@<TRIPOS>BOND
     1     1    12 1   
     2     1    13 1   
     3     1    15 1   
     4     1    16 1   
     5     2     3 1   
     6     2    13 1   
     7     2    17 1   
     8     2    18 1   
     9     3    14 1   
    10     3    19 1   
    11     3    20 1   
    12     4     5 1   
    13     4    21 1   
    14     4    22 1   
    15     4    23 1   
    16     5     6 1   
    17     5    24 1   
    18     5    25 1   
    19     6     7 1   
    20     6    26 1   
    21     7     8 1   
    22     7    27 1   
    23     7    28 1   
    24     8     9 1   
    25     8    29 1   
    26     8    30 1   
    27     9    10 1   
    28     9    31 1   
    29     9    32 1   
    30    10    11 1   
    31    10    33 1   
    32    11    12 1   
    33    11    34 1   
    34    11    35 1   
    35    12    36 1   
    36    12    37 1   
    37    13    38 1   
    38    14    39 1   
    39    14    40 1   
    40    14    41 1   
@<TRIPOS>SUBSTRUCTURE
     1 B33         1 TEMP              0 ****  ****    0 ROOT
