@<TRIPOS>MOLECULE
B34
   48    51     1     0     0
SMALL
bcc


@<TRIPOS>ATOM
      1 O26          0.0000     0.0000     0.0000 o          1 B34      -0.565800
      2 S28          1.4210     0.0000     0.0000 sy         1 B34       1.071700
      3 O25          2.2180    -0.9440    -0.7020 o          1 B34      -0.565800
      4 C12          1.9560     0.0000     1.6880 ca         1 B34      -0.118500
      5 C9           1.8980    -0.9000     2.7150 ca         1 B34       0.037000
      6 C5           2.4310    -0.5660     3.9510 ca         1 B34      -0.089000
      7 N22          1.9270     1.5270    -0.4540 ne         1 B34      -0.480300
      8 C13          2.4820     2.0510     0.5950 cf         1 B34       0.670200
      9 C10          2.5400     1.2630     1.8400 ca         1 B34      -0.185900
     10 C6           3.0740     1.5850     3.0970 ca         1 B34      -0.038000
     11 C2           3.0150     0.6760     4.1290 ca         1 B34      -0.076000
     12 C14          3.0460     3.4140     0.5430 cf         1 B34      -0.341800
     13 C16          4.4720     3.7400     0.4740 c          1 B34       0.659700
     14 O24          5.3720     2.9220     0.4490 o          1 B34      -0.663500
     15 N23          4.6440     5.0740     0.4390 n          1 B34      -0.149800
     16 C17          3.3180     5.7020     0.4850 c3         1 B34       0.034900
     17 C21          3.0850     6.5340    -0.7780 c3         1 B34      -0.054700
     18 C19          3.0350     5.6090    -1.9960 c3         1 B34      -0.004100
     19 C18          1.7590     7.2880    -0.6550 c3         1 B34      -0.004100
     20 C15          2.3210     4.5670     0.5460 c2         1 B34       0.155900
     21 O27          0.9820     4.6750     0.6020 oh         1 B34      -0.455100
     22 C20          5.9270     5.7760     0.3680 c3         1 B34       0.144300
     23 C11          6.4890     5.9370     1.7570 ca         1 B34      -0.137300
     24 C7           6.0930     7.0030     2.5420 ca         1 B34      -0.081500
     25 C3           6.6080     7.1530     3.8170 ca         1 B34      -0.104000
     26 C8           7.3950     5.0160     2.2480 ca         1 B34      -0.081500
     27 C4           7.9090     5.1640     3.5220 ca         1 B34      -0.104000
     28 C1           7.5190     6.2330     4.3060 ca         1 B34      -0.093000
     29 H9           1.4380    -1.8700     2.5640 ha         1 B34       0.112000
     30 H5           2.3900    -1.2720     4.7710 ha         1 B34       0.111000
     31 H6           3.5360     2.5520     3.2550 ha         1 B34       0.109000
     32 H2           3.4310     0.9370     5.0950 ha         1 B34       0.108000
     33 H17          3.2300     6.3220     1.3690 h1         1 B34       0.044700
     34 H21          3.8940     7.2440    -0.8960 hc         1 B34       0.031700
     35 H19          3.9580     5.0460    -2.0600 hc         1 B34       0.013700
     36 H19A         2.2010     4.9260    -1.8970 hc         1 B34       0.013700
     37 H19B         2.9110     6.2020    -2.8940 hc         1 B34       0.013700
     38 H18          1.7880     8.1740    -1.2780 hc         1 B34       0.013700
     39 H18A         1.6020     7.5770     0.3770 hc         1 B34       0.013700
     40 H18B         0.9480     6.6470    -0.9780 hc         1 B34       0.013700
     41 H20          6.6190     5.2020    -0.2370 h1         1 B34       0.035700
     42 H20A         5.7800     6.7520    -0.0780 h1         1 B34       0.035700
     43 H7           5.3800     7.7230     2.1590 ha         1 B34       0.111500
     44 H3           6.3000     7.9900     4.4310 ha         1 B34       0.105000
     45 H8           7.7010     4.1780     1.6340 ha         1 B34       0.111500
     46 H4           8.6210     4.4430     3.9060 ha         1 B34       0.105000
     47 H1           7.9220     6.3490     5.3040 ha         1 B34       0.103000
     48 H201         0.7040     4.6660     1.5030 ho         1 B34       0.413000
@<TRIPOS>BOND
     1     1     2 2   
     2     2     3 2   
     3     2     4 1   
     4     2     7 1   
     5     4     5 ar  
     6     4     9 ar  
     7     5     6 ar  
     8     5    29 1   
     9     6    11 ar  
    10     6    30 1   
    11     7     8 2   
    12     8     9 1   
    13     8    12 1   
    14     9    10 ar  
    15    10    11 ar  
    16    10    31 1   
    17    11    32 1   
    18    12    13 1   
    19    12    20 2   
    20    13    14 2   
    21    13    15 1   
    22    15    16 1   
    23    15    22 1   
    24    16    17 1   
    25    16    20 1   
    26    16    33 1   
    27    17    18 1   
    28    17    19 1   
    29    17    34 1   
    30    18    35 1   
    31    18    36 1   
    32    18    37 1   
    33    19    38 1   
    34    19    39 1   
    35    19    40 1   
    36    20    21 1   
    37    21    48 1   
    38    22    23 1   
    39    22    41 1   
    40    22    42 1   
    41    23    24 ar  
    42    23    26 ar  
    43    24    25 ar  
    44    24    43 1   
    45    25    28 ar  
    46    25    44 1   
    47    26    27 ar  
    48    26    45 1   
    49    27    28 ar  
    50    27    46 1   
    51    28    47 1   
@<TRIPOS>SUBSTRUCTURE
     1 B34         1 TEMP              0 ****  ****    0 ROOT
