@<TRIPOS>MOLECULE
molecule
   48    51     1     0     0
SMALL
bcc


@<TRIPOS>ATOM
      1 O26          0.0000     0.0000     0.0000 o          1 B34      -0.601800
      2 S28          1.4210     0.0000     0.0000 sy         1 B34       1.355700
      3 O25          2.2180    -0.9440    -0.7020 o          1 B34      -0.601800
      4 C12          1.9560     0.0000     1.6880 ca         1 B34      -0.249500
      5 C9           1.8980    -0.9000     2.7150 ca         1 B34      -0.002000
      6 C5           2.4310    -0.5660     3.9510 ca         1 B34      -0.108000
      7 N22          1.9270     1.5270    -0.4540 ne         1 B34      -0.600300
      8 C13          2.4820     2.0510     0.5950 cf         1 B34       0.655200
      9 C10          2.5400     1.2630     1.8400 ca         1 B34      -0.196900
     10 C6           3.0740     1.5850     3.0970 ca         1 B34      -0.058000
     11 C2           3.0150     0.6760     4.1290 ca         1 B34      -0.103000
     12 C14          3.0460     3.4140     0.5430 cf         1 B34      -0.302800
     13 C16          4.4720     3.7400     0.4740 c          1 B34       0.719700
     14 O24          5.3720     2.9220     0.4490 o          1 B34      -0.615500
     15 N23          4.6440     5.0740     0.4390 n          1 B34      -0.482800
     16 C17          3.3180     5.7020     0.4850 c3         1 B34       0.111900
     17 C21          3.0850     6.5340    -0.7780 c3         1 B34      -0.076700
     18 C19          3.0350     5.6090    -1.9960 c3         1 B34      -0.092600
     19 C18          1.7590     7.2880    -0.6550 c3         1 B34      -0.092600
     20 C15          2.3210     4.5670     0.5460 c2         1 B34       0.143900
     21 O27          0.9820     4.6750     0.6020 oh         1 B34      -0.479100
     22 C20          5.9270     5.7760     0.3680 c3         1 B34       0.184300
     23 C11          6.4890     5.9370     1.7570 ca         1 B34      -0.124300
     24 C7           6.0930     7.0030     2.5420 ca         1 B34      -0.109000
     25 C3           6.6080     7.1530     3.8170 ca         1 B34      -0.132000
     26 C8           7.3950     5.0160     2.2480 ca         1 B34      -0.109000
     27 C4           7.9090     5.1640     3.5220 ca         1 B34      -0.132000
     28 C1           7.5190     6.2330     4.3060 ca         1 B34      -0.120000
     29 H9           1.4380    -1.8700     2.5640 ha         1 B34       0.147000
     30 H5           2.3900    -1.2720     4.7710 ha         1 B34       0.144000
     31 H6           3.5360     2.5520     3.2550 ha         1 B34       0.142000
     32 H2           3.4310     0.9370     5.0950 ha         1 B34       0.141000
     33 H17          3.2300     6.3220     1.3690 h1         1 B34       0.074700
     34 H21          3.8940     7.2440    -0.8960 hc         1 B34       0.056700
     35 H19          3.9580     5.0460    -2.0600 hc         1 B34       0.045033
     36 H19A         2.2010     4.9260    -1.8970 hc         1 B34       0.045033
     37 H19B         2.9110     6.2020    -2.8940 hc         1 B34       0.045033
     38 H18          1.7880     8.1740    -1.2780 hc         1 B34       0.045033
     39 H18A         1.6020     7.5770     0.3770 hc         1 B34       0.045033
     40 H18B         0.9480     6.6470    -0.9780 hc         1 B34       0.045033
     41 H20          6.6190     5.2020    -0.2370 h1         1 B34       0.069200
     42 H20A         5.7800     6.7520    -0.0780 h1         1 B34       0.069200
     43 H7           5.3800     7.7230     2.1590 ha         1 B34       0.137000
     44 H3           6.3000     7.9900     4.4310 ha         1 B34       0.132000
     45 H8           7.7010     4.1780     1.6340 ha         1 B34       0.137000
     46 H4           8.6210     4.4430     3.9060 ha         1 B34       0.132000
     47 H1           7.9220     6.3490     5.3040 ha         1 B34       0.131000
     48 H201         0.7040     4.6660     1.5030 ho         1 B34       0.438000
@<TRIPOS>BOND
     1     2     1 2
     2     2     3 2
     3     2     4 1
     4     4     5 ar
     5     5     6 ar
     6     5    29 1
     7     6    30 1
     8     7     2 1
     9     8     7 2
    10     8     9 1
    11     9     4 ar
    12     9    10 ar
    13    10    11 ar
    14    10    31 1
    15    11     6 ar
    16    11    32 1
    17    12     8 1
    18    13    12 1
    19    13    14 2
    20    15    13 1
    21    16    15 1
    22    16    20 1
    23    16    33 1
    24    17    16 1
    25    17    19 1
    26    17    34 1
    27    18    17 1
    28    18    35 1
    29    18    36 1
    30    18    37 1
    31    19    38 1
    32    19    39 1
    33    19    40 1
    34    20    12 2
    35    20    21 1
    36    22    15 1
    37    22    41 1
    38    22    42 1
    39    23    22 1
    40    23    26 ar
    41    24    23 ar
    42    24    43 1
    43    25    24 ar
    44    25    28 ar
    45    25    44 1
    46    26    45 1
    47    27    26 ar
    48    27    46 1
    49    28    27 ar
    50    28    47 1
    51    21    48 1
@<TRIPOS>SUBSTRUCTURE
     1 B34         1 TEMP              0 ****  ****    0 ROOT
