@<TRIPOS>MOLECULE
B35
   47    49     1     0     0
SMALL
bcc


@<TRIPOS>ATOM
      1 C1           0.0000     0.0000     0.0000 ca         1 B35       0.121100
      2 C2           1.3860     0.0000     0.0000 ca         1 B35      -0.186000
      3 C3           2.0760     0.0000     1.1980 ca         1 B35      -0.057000
      4 C4           1.3860    -0.0030     2.3960 ca         1 B35      -0.097300
      5 N            2.8540     1.9640     5.1380 nc         1 B35      -0.678000
      6 C5           0.0030    -0.0040     2.4000 ca         1 B35      -0.111000
      7 C6           0.0960     0.0130    -2.3760 c3         1 B35       0.243700
      8 C7           2.1410    -0.0040     3.6990 c3         1 B35       0.012300
      9 C8           1.9370     1.3150     4.4000 cc         1 B35       0.331600
     10 C           -0.6920    -0.0020     1.2050 ca         1 B35       0.070900
     11 O           -0.6810     0.0060    -1.1770 os         1 B35      -0.295900
     12 F           -2.0440    -0.0030     1.2080 f          1 B35      -0.123900
     13 C9           1.6250    -1.1390     4.5870 c3         1 B35       0.040900
     14 C10          2.4620    -1.2180     5.8370 ca         1 B35      -0.135300
     15 C11          3.5260    -2.0960     5.9030 ca         1 B35       0.029000
     16 C12          4.2950    -2.1690     7.0500 ca         1 B35      -0.496200
     17 C13          3.9990    -1.3650     8.1350 ca         1 B35       0.032000
     18 C14          2.9350    -0.4860     8.0760 ca         1 B35      -0.230000
     19 C15          2.1670    -0.4070     6.9240 ca         1 B35       0.231100
     20 O16          1.1230     0.4610     6.8610 os         1 B35      -0.290900
     21 C17          0.8770     1.2660     8.0160 c3         1 B35       0.231700
     22 C18          2.3340     3.0780     5.5950 cd         1 B35       0.325400
     23 N19          1.0490     3.1650     5.1540 na         1 B35       0.199100
     24 C20          0.8070     2.0410     4.3950 cd         1 B35      -0.453600
     25 N21          2.9800     4.0060     6.3940 nv         1 B35      -0.543500
     26 N22          5.4360    -3.1100     7.1170 no         1 B35       1.059200
     27 O23          5.6960    -3.8190     6.1620 o          1 B35      -0.459500
     28 O24          6.1130    -3.1750     8.1270 o          1 B35      -0.459500
     29 H2           1.9280     0.0020    -0.9380 ha         1 B35       0.125000
     30 H3           3.1590     0.0000     1.1990 ha         1 B35       0.112000
     31 H5          -0.5360    -0.0050     3.3400 ha         1 B35       0.131000
     32 H6           0.7200    -0.8720    -2.4060 h1         1 B35      -0.001300
     33 H6A          0.7220     0.8970    -2.3960 h1         1 B35      -0.001300
     34 H6B         -0.5640     0.0190    -3.2340 h1         1 B35      -0.001300
     35 H7           3.1970    -0.1500     3.5050 hc         1 B35       0.045700
     36 H9           0.5930    -0.9470     4.8550 hc         1 B35       0.028200
     37 H9A          1.6900    -2.0770     4.0490 hc         1 B35       0.028200
     38 H11          3.7600    -2.7270     5.0540 ha         1 B35       0.133000
     39 H13          4.6010    -1.4260     9.0340 ha         1 B35       0.127000
     40 H14          2.7050     0.1450     8.9260 ha         1 B35       0.128000
     41 H17          0.6220     0.6270     8.8530 h1         1 B35       0.000700
     42 H17A         1.7670     1.8360     8.2540 h1         1 B35       0.000700
     43 H17B         0.0560     1.9440     7.8160 h1         1 B35       0.000700
     44 HN19         0.4040     3.9060     5.3430 hn         1 B35       0.119700
     45 H20         -0.1190     1.7910     3.8910 h4         1 B35       0.167000
     46 HN21         2.4550     4.7250     6.8510 hn         1 B35       0.272300
     47 HN2A         3.9760     3.9750     6.4910 hn         1 B35       0.272300
@<TRIPOS>BOND
     1     1     2 ar  
     2     1    10 ar  
     3     1    11 1   
     4     2     3 ar  
     5     2    29 1   
     6     3     4 ar  
     7     3    30 1   
     8     4     6 ar  
     9     4     8 1   
    10     5     9 1   
    11     5    22 2   
    12     6    10 ar  
    13     6    31 1   
    14     7    11 1   
    15     7    32 1   
    16     7    33 1   
    17     7    34 1   
    18     8     9 1   
    19     8    13 1   
    20     8    35 1   
    21     9    24 2   
    22    10    12 1   
    23    13    14 1   
    24    13    36 1   
    25    13    37 1   
    26    14    15 ar  
    27    14    19 ar  
    28    15    16 ar  
    29    15    38 1   
    30    16    17 ar  
    31    16    26 1   
    32    17    18 ar  
    33    17    39 1   
    34    18    19 ar  
    35    18    40 1   
    36    19    20 1   
    37    20    21 1   
    38    21    41 1   
    39    21    42 1   
    40    21    43 1   
    41    22    23 1   
    42    22    25 1   
    43    23    24 1   
    44    23    44 1   
    45    24    45 1   
    46    25    46 1   
    47    25    47 1   
    48    26    27 1   
    49    26    28 1   
@<TRIPOS>SUBSTRUCTURE
     1 B35         1 TEMP              0 ****  ****    0 ROOT
