@<TRIPOS>MOLECULE
B36
   62    67     1     0     0
SMALL
bcc


@<TRIPOS>ATOM
      1 CBE          0.0000     0.0000     0.0000 ca         1 B36       0.002000
      2 CAK          1.4050     0.0000     0.0000 ca         1 B36      -0.100500
      3 CAE          2.0780     0.0000     1.1820 ca         1 B36      -0.089000
      4 CAC          1.4080    -0.0010     2.4040 ca         1 B36      -0.100500
      5 CAI          0.0510    -0.0020     2.4740 ca         1 B36      -0.086500
      6 CBB         -0.7070    -0.0070     1.2830 ca         1 B36      -0.040500
      7 CAP         -2.1010    -0.0080     1.3200 ca         1 B36      -0.061000
      8 CBC         -2.8300    -0.0140     0.1300 ca         1 B36      -0.040500
      9 CAJ         -4.2410    -0.0150     0.1410 ca         1 B36      -0.086500
     10 CAD         -4.9210    -0.0210    -1.0350 ca         1 B36      -0.100500
     11 CAF         -4.2610    -0.0250    -2.2610 ca         1 B36      -0.089000
     12 CAL         -2.9020    -0.0240    -2.3400 ca         1 B36      -0.100500
     13 CBF         -2.1380    -0.0170    -1.1600 ca         1 B36       0.002000
     14 CAZ         -0.7290     0.0010    -1.2070 ca         1 B36      -0.124600
     15 CAW         -0.0280     0.0030    -2.4980 c          1 B36       0.615700
     16 OAB          0.2630    -1.0510    -3.0330 o          1 B36      -0.641100
     17 NBH          0.2930     1.1700    -3.0890 n          1 B36      -0.150800
     18 CAT         -0.0460     2.4500    -2.4510 c3         1 B36       0.045500
     19 CAR          1.2250     3.3000    -2.3440 c3         1 B36      -0.048900
     20 CAS          0.9950     1.1880    -4.3790 c3         1 B36       0.045500
     21 CAQ          2.2510     2.0540    -4.2460 c3         1 B36      -0.048900
     22 CBG          1.8600     3.4360    -3.7290 c3         1 B36      -0.049700
     23 CAU          3.1100     4.3120    -3.6320 c3         1 B36       0.031900
     24 CAY          3.6670     4.5490    -5.0120 ca         1 B36      -0.089300
     25 CAO          3.2440     5.6240    -5.7330 ca         1 B36      -0.081000
     26 CBA          3.7620     5.8450    -7.0200 ca         1 B36      -0.152300
     27 CAM          3.3510     6.9440    -7.7960 ca         1 B36      -0.054000
     28 CAG          3.8980     7.0960    -9.0380 ca         1 B36      -0.216300
     29 CAX          4.8350     6.1760    -9.5020 ca         1 B36       0.381600
     30 CAA          5.4280     6.3610   -10.8750 c3         1 B36      -0.044400
     31 NAV          5.2160     5.1530    -8.7750 nb         1 B36      -0.565000
     32 CBD          4.7200     4.9460    -7.5520 ca         1 B36       0.375600
     33 CAN          5.1320     3.8480    -6.7770 ca         1 B36      -0.138300
     34 CAH          4.6130     3.6670    -5.5330 ca         1 B36      -0.094000
     35 HAK          1.9500     0.0010    -0.9360 ha         1 B36       0.117000
     36 HAE          3.1610     0.0000     1.1740 ha         1 B36       0.101000
     37 HAC          1.9840    -0.0010     3.3210 ha         1 B36       0.101000
     38 HAI         -0.4450    -0.0030     3.4370 ha         1 B36       0.107000
     39 HAP         -2.6180    -0.0510     2.2720 ha         1 B36       0.110000
     40 HAJ         -4.7790    -0.0120     1.0820 ha         1 B36       0.107000
     41 HAD         -6.0040    -0.0220    -1.0180 ha         1 B36       0.101000
     42 HAF         -4.8430    -0.0290    -3.1750 ha         1 B36       0.101000
     43 HAL         -2.4130    -0.0280    -3.3060 ha         1 B36       0.117000
     44 HAT         -0.7800     2.9710    -3.0530 h1         1 B36       0.033450
     45 HATA        -0.4440     2.2670    -1.4610 h1         1 B36       0.033450
     46 HAR          1.9250     2.8180    -1.6720 hc         1 B36       0.027950
     47 HARA         0.9700     4.2820    -1.9660 hc         1 B36       0.027950
     48 HAS          1.2780     0.1790    -4.6520 h1         1 B36       0.033450
     49 HASA         0.3450     1.6070    -5.1390 h1         1 B36       0.033450
     50 HAQ          2.7250     2.1530    -5.2150 hc         1 B36       0.027950
     51 HAQA         2.9370     1.5890    -3.5480 hc         1 B36       0.027950
     52 HBG          1.1480     3.8870    -4.4090 hc         1 B36       0.035700
     53 HAU          2.8510     5.2620    -3.1800 hc         1 B36       0.021700
     54 HAUA         3.8540     3.8140    -3.0230 hc         1 B36       0.021700
     55 HAO          2.6020     6.3660    -5.2730 ha         1 B36       0.110000
     56 HAM          2.6200     7.6490    -7.4190 ha         1 B36       0.110000
     57 HAG          3.5690     7.9050    -9.6790 ha         1 B36       0.114000
     58 HAA          5.9030     7.3330   -10.9360 hc         1 B36       0.014367
     59 HAAA         4.6430     6.2960   -11.6190 hc         1 B36       0.014367
     60 HAAB         6.1640     5.5870   -11.0580 hc         1 B36       0.014367
     61 HAN          5.8660     3.1520    -7.1660 ha         1 B36       0.119000
     62 HAH          4.9440     2.8270    -4.9340 ha         1 B36       0.110000
@<TRIPOS>BOND
     1     1     2 ar  
     2     1     6 ar  
     3     1    14 ar  
     4     2     3 ar  
     5     2    35 1   
     6     3     4 ar  
     7     3    36 1   
     8     4     5 ar  
     9     4    37 1   
    10     5     6 ar  
    11     5    38 1   
    12     6     7 ar  
    13     7     8 ar  
    14     7    39 1   
    15     8     9 ar  
    16     8    13 ar  
    17     9    10 ar  
    18     9    40 1   
    19    10    11 ar  
    20    10    41 1   
    21    11    12 ar  
    22    11    42 1   
    23    12    13 ar  
    24    12    43 1   
    25    13    14 ar  
    26    14    15 1   
    27    15    16 2   
    28    15    17 1   
    29    17    18 1   
    30    17    20 1   
    31    18    19 1   
    32    18    44 1   
    33    18    45 1   
    34    19    22 1   
    35    19    46 1   
    36    19    47 1   
    37    20    21 1   
    38    20    48 1   
    39    20    49 1   
    40    21    22 1   
    41    21    50 1   
    42    21    51 1   
    43    22    23 1   
    44    22    52 1   
    45    23    24 1   
    46    23    53 1   
    47    23    54 1   
    48    24    25 ar  
    49    24    34 ar  
    50    25    26 ar  
    51    25    55 1   
    52    26    27 ar  
    53    26    32 ar  
    54    27    28 ar  
    55    27    56 1   
    56    28    29 ar  
    57    28    57 1   
    58    29    30 1   
    59    29    31 ar  
    60    30    58 1   
    61    30    59 1   
    62    30    60 1   
    63    31    32 ar  
    64    32    33 ar  
    65    33    34 ar  
    66    33    61 1   
    67    34    62 1   
@<TRIPOS>SUBSTRUCTURE
     1 B36         1 TEMP              0 ****  ****    0 ROOT
