@<TRIPOS>MOLECULE
B37
   65    70     1     0     0
SMALL
bcc


@<TRIPOS>ATOM
      1 C4           0.0000     0.0000     0.0000 ca         1 B37       0.374600
      2 C6          -0.0330     0.0110    -2.3070 ca         1 B37       0.382600
      3 C10          1.4140    -0.0000     2.3910 ca         1 B37      -0.090300
      4 C20          2.1600    -0.0000     3.7000 c3         1 B37       0.032900
      5 C21          2.4120     1.4420     4.1440 c3         1 B37      -0.049700
      6 C24          1.0740     2.1260     4.4380 c3         1 B37      -0.047400
      7 C28          3.2760     1.4440     5.4070 c3         1 B37      -0.047400
      8 C1           1.3580     0.0120    -2.3780 ca         1 B37      -0.216300
      9 C2           2.0990     0.0010    -1.2310 ca         1 B37      -0.054000
     10 C3           1.4170     0.0000     0.0000 ca         1 B37      -0.151300
     11 N5          -0.6650     0.0050    -1.1600 nb         1 B37      -0.565000
     12 C9           2.1110     0.0000     1.2210 ca         1 B37      -0.081000
     13 C11          0.0200    -0.0020     2.3930 ca         1 B37      -0.095000
     14 C12         -0.6840    -0.0020     1.2290 ca         1 B37      -0.137300
     15 C16         -0.8320     0.0240    -3.5850 c3         1 B37      -0.044400
     16 C25          1.3280     3.5800     4.8480 c3         1 B37       0.036000
     17 N26          2.2740     3.5950     5.9720 n          1 B37      -0.143800
     18 C27          3.5550     2.8900     5.8290 c3         1 B37       0.036000
     19 C38          1.9730     4.2460     7.1140 c          1 B37       0.610700
     20 C39          2.8960     4.1790     8.2680 ca         1 B37      -0.089600
     21 C40          2.4390     3.7670     9.5470 ca         1 B37      -0.116300
     22 C41          3.3580     3.7180    10.6250 ca         1 B37       0.373600
     23 N42          4.6340     4.0570    10.4320 nb         1 B37      -0.550000
     24 C43          5.0800     4.4440     9.2520 cp         1 B37       0.441800
     25 C44          4.2340     4.5110     8.1340 ca         1 B37      -0.207300
     26 C46          1.1010     3.4090     9.7610 ca         1 B37      -0.081000
     27 C47          0.6970     3.0180    11.0020 ca         1 B37      -0.096000
     28 C48          1.5980     2.9700    12.0650 ca         1 B37      -0.088000
     29 C49          2.9040     3.3090    11.8920 ca         1 B37      -0.147300
     30 C54          6.5090     4.8080     9.1030 cp         1 B37      -0.159500
     31 C55          6.9980     5.2250     7.8660 ca         1 B37      -0.080000
     32 C56          8.3290     5.5630     7.7320 ca         1 B37      -0.106500
     33 C57          9.1770     5.4890     8.8230 ca         1 B37      -0.091000
     34 C58          8.6970     5.0770    10.0530 ca         1 B37      -0.106500
     35 C59          7.3670     4.7400    10.2000 ca         1 B37      -0.080000
     36 O65          0.9430     4.8860     7.1960 o          1 B37      -0.640100
     37 H20          3.1080    -0.5110     3.5760 hc         1 B37       0.022200
     38 H20A         1.5710    -0.5120     4.4510 hc         1 B37       0.022200
     39 H21          2.9260     1.9820     3.3580 hc         1 B37       0.035700
     40 H24          0.4560     2.1060     3.5480 hc         1 B37       0.028700
     41 H24A         0.5730     1.6060     5.2450 hc         1 B37       0.028700
     42 H28          2.7510     0.9310     6.2040 hc         1 B37       0.028700
     43 H28A         4.2140     0.9410     5.2030 hc         1 B37       0.028700
     44 H1           1.8520     0.0170    -3.3420 ha         1 B37       0.114000
     45 H2           3.1820     0.0020    -1.2680 ha         1 B37       0.110000
     46 H9           3.1880    -0.1140     1.2320 ha         1 B37       0.110000
     47 H11         -0.5110    -0.0090     3.3370 ha         1 B37       0.110000
     48 H12         -1.7670    -0.0030     1.2480 ha         1 B37       0.119000
     49 H16         -1.8890     0.0140    -3.3500 hc         1 B37       0.014367
     50 H16A        -0.5850    -0.8510    -4.1740 hc         1 B37       0.014367
     51 H16B        -0.5960     0.9180    -4.1500 hc         1 B37       0.014367
     52 H25          0.3950     4.0390     5.1530 h1         1 B37       0.036200
     53 H25A         1.7510     4.1240     4.0120 h1         1 B37       0.036200
     54 H27          4.0800     2.8960     6.7760 h1         1 B37       0.036200
     55 H27A         4.1550     3.3790     5.0710 h1         1 B37       0.036200
     56 H44          4.6230     4.8320     7.1750 ha         1 B37       0.130000
     57 H46          0.3920     3.4430     8.9430 ha         1 B37       0.131000
     58 H47         -0.3380     2.7430    11.1660 ha         1 B37       0.105000
     59 H48          1.2530     2.6560    13.0430 ha         1 B37       0.104000
     60 H49          3.5920     3.2660    12.7280 ha         1 B37       0.117000
     61 H55          6.3350     5.2830     7.0110 ha         1 B37       0.115500
     62 H56          8.7110     5.8860     6.7710 ha         1 B37       0.104000
     63 H57         10.2220     5.7540     8.7120 ha         1 B37       0.102000
     64 H58          9.3650     5.0230    10.9040 ha         1 B37       0.104000
     65 H59          6.9910     4.4180    11.1630 ha         1 B37       0.115500
@<TRIPOS>BOND
     1     1    10 ar  
     2     1    11 ar  
     3     1    14 ar  
     4     2     8 ar  
     5     2    11 ar  
     6     2    15 1   
     7     3     4 1   
     8     3    12 ar  
     9     3    13 ar  
    10     4     5 1   
    11     4    37 1   
    12     4    38 1   
    13     5     6 1   
    14     5     7 1   
    15     5    39 1   
    16     6    16 1   
    17     6    40 1   
    18     6    41 1   
    19     7    18 1   
    20     7    42 1   
    21     7    43 1   
    22     8     9 ar  
    23     8    44 1   
    24     9    10 ar  
    25     9    45 1   
    26    10    12 ar  
    27    12    46 1   
    28    13    14 ar  
    29    13    47 1   
    30    14    48 1   
    31    15    49 1   
    32    15    50 1   
    33    15    51 1   
    34    16    17 1   
    35    16    52 1   
    36    16    53 1   
    37    17    18 1   
    38    17    19 1   
    39    18    54 1   
    40    18    55 1   
    41    19    20 1   
    42    19    36 2   
    43    20    21 ar  
    44    20    25 ar  
    45    21    22 ar  
    46    21    26 ar  
    47    22    23 ar  
    48    22    29 ar  
    49    23    24 ar  
    50    24    25 ar  
    51    24    30 1   
    52    25    56 1   
    53    26    27 ar  
    54    26    57 1   
    55    27    28 ar  
    56    27    58 1   
    57    28    29 ar  
    58    28    59 1   
    59    29    60 1   
    60    30    31 ar  
    61    30    35 ar  
    62    31    32 ar  
    63    31    61 1   
    64    32    33 ar  
    65    32    62 1   
    66    33    34 ar  
    67    33    63 1   
    68    34    35 ar  
    69    34    64 1   
    70    35    65 1   
@<TRIPOS>SUBSTRUCTURE
     1 B37         1 TEMP              0 ****  ****    0 ROOT
