@<TRIPOS>MOLECULE
B38
   49    53     1     0     0
SMALL
bcc


@<TRIPOS>ATOM
      1 C4           0.0000     0.0000     0.0000 c3         1 B38      -0.058900
      2 C7          -2.4880     2.3950     1.6270 c          1 B38       0.638700
      3 C6          -0.4700     3.5700     0.7940 ca         1 B38       0.188100
      4 C9           1.5090     1.0380     2.3060 c3         1 B38       0.041500
      5 C13         -2.1680     4.8450     1.9700 ca         1 B38       0.003000
      6 C8           1.5320     0.0000     0.0000 c3         1 B38       0.041500
      7 C1          -0.5050     1.1780     0.8370 c3         1 B38       0.168800
      8 O2          -0.0100     2.4000     0.2910 os         1 B38      -0.298900
      9 C3          -2.0400     1.1930     0.8140 c3         1 B38      -0.151400
     10 C5          -0.0220     1.0270     2.2800 c3         1 B38      -0.058900
     11 C10         -1.7020     3.6300     1.4650 ca         1 B38      -0.271600
     12 C11          0.2800     4.7290     0.6490 ca         1 B38      -0.156000
     13 C14         -0.1890     5.9250     1.1550 ca         1 B38      -0.033000
     14 C15         -1.4090     5.9840     1.8110 ca         1 B38      -0.143300
     15 N27          2.0050     0.0000     1.3900 n          1 B38      -0.147800
     16 C20          3.4420    -0.8440     3.1790 ca         1 B38      -0.172600
     17 C21          3.9010    -1.8400     5.3470 ca         1 B38      -0.280900
     18 C18          4.6110     0.4080     4.8750 ca         1 B38      -0.163000
     19 C19          4.0730     0.3210     3.6020 ca         1 B38      -0.032000
     20 C26          2.8770    -0.9330     1.8200 c          1 B38       0.615700
     21 C17          4.5310    -0.6560     5.7460 ca         1 B38       0.012000
     22 C22          3.3510    -1.9410     4.0560 ca         1 B38      -0.140200
     23 N23          2.8130    -3.1910     3.9520 na         1 B38       0.432900
     24 N24          3.0130    -3.8790     5.1530 nc         1 B38      -0.633100
     25 C25          3.6490    -3.1210     6.0010 cd         1 B38       0.441800
     26 O28          3.1980    -1.8470     1.0860 o          1 B38      -0.655100
     27 H4          -0.3600     0.0990    -1.0170 hc         1 B38       0.037700
     28 H4A         -0.3600    -0.9270     0.4280 hc         1 B38       0.037700
     29 H9           1.8700     2.0070     1.9840 h1         1 B38       0.041700
     30 H9A          1.8560     0.8310     3.3110 h1         1 B38       0.041700
     31 H13         -3.1680     4.9130     2.3800 ha         1 B38       0.123000
     32 H8           1.8940     0.8870    -0.5060 h1         1 B38       0.041700
     33 H8A          1.8940    -0.8870    -0.5060 h1         1 B38       0.041700
     34 H16         -2.3120     7.1520     3.3470 hc         1 B38       0.008033
     35 H16A        -1.0860     8.0050     2.4000 hc         1 B38       0.008033
     36 H16B        -2.6800     7.6900     1.7020 hc         1 B38       0.008033
     37 H3          -2.3920     1.2870    -0.2060 hc         1 B38       0.053200
     38 H3A         -2.4230     0.2830     1.2610 hc         1 B38       0.053200
     39 H5          -0.3980     1.8510     2.8750 hc         1 B38       0.037700
     40 H5A         -0.3820     0.0890     2.6850 hc         1 B38       0.037700
     41 H11          1.2350     4.6960     0.1390 ha         1 B38       0.119000
     42 H14          0.4000     6.8260     1.0350 ha         1 B38       0.107000
     43 H18          5.0990     1.3230     5.1890 ha         1 B38       0.110000
     44 H19          4.1450     1.1670     2.9300 ha         1 B38       0.107000
     45 H17          4.9550    -0.5760     6.7400 ha         1 B38       0.102000
     46 H25          3.9380    -3.3920     7.0090 h4         1 B38       0.015800
     47 HN23         2.3490    -3.5570     3.1450 hn         1 B38       0.165700
     48 O12         -3.4450     2.3410     2.3710 o          1 B38      -0.550100
     49 C16         -1.9070     7.3000     2.3530 c3         1 B38       0.071200
@<TRIPOS>BOND
     1     1     6 1   
     2     1     7 1   
     3     1    27 1   
     4     1    28 1   
     5     2     9 1   
     6     2    11 1   
     7     2    48 2   
     8     3     8 1   
     9     3    11 ar  
    10     3    12 ar  
    11     4    10 1   
    12     4    15 1   
    13     4    29 1   
    14     4    30 1   
    15     5    11 ar  
    16     5    14 ar  
    17     5    31 1   
    18     6    15 1   
    19     6    32 1   
    20     6    33 1   
    21     7     8 1   
    22     7     9 1   
    23     7    10 1   
    24     9    37 1   
    25     9    38 1   
    26    10    39 1   
    27    10    40 1   
    28    12    13 ar  
    29    12    41 1   
    30    13    14 ar  
    31    13    42 1   
    32    14    49 1   
    33    15    20 1   
    34    16    19 ar  
    35    16    20 1   
    36    16    22 ar  
    37    17    21 ar  
    38    17    22 ar  
    39    17    25 1   
    40    18    19 ar  
    41    18    21 ar  
    42    18    43 1   
    43    19    44 1   
    44    20    26 2   
    45    21    45 1   
    46    22    23 1   
    47    23    24 1   
    48    23    47 1   
    49    24    25 2   
    50    25    46 1   
    51    34    49 1   
    52    35    49 1   
    53    36    49 1   
@<TRIPOS>SUBSTRUCTURE
     1 B38         1 TEMP              0 ****  ****    0 ROOT
