@<TRIPOS>MOLECULE
molecule
   49    53     1     0     0
SMALL
bcc


@<TRIPOS>ATOM
      1 C4           0.0000     0.0000     0.0000 c3         1 B38      -0.104400
      2 C7          -2.4880     2.3950     1.6270 c          1 B38       0.582700
      3 C6          -0.4700     3.5700     0.7940 ca         1 B38       0.176100
      4 C9           1.5090     1.0380     2.3060 c3         1 B38       0.104500
      5 C13         -2.1680     4.8450     1.9700 ca         1 B38      -0.035000
      6 C8           1.5320     0.0000     0.0000 c3         1 B38       0.104500
      7 C1          -0.5050     1.1780     0.8370 c3         1 B38       0.161800
      8 O2          -0.0100     2.4000     0.2910 os         1 B38      -0.324900
      9 C3          -2.0400     1.1930     0.8140 c3         1 B38      -0.204400
     10 C5          -0.0220     1.0270     2.2800 c3         1 B38      -0.104400
     11 C10         -1.7020     3.6300     1.4650 ca         1 B38      -0.256600
     12 C11          0.2800     4.7290     0.6490 ca         1 B38      -0.172000
     13 C14         -0.1890     5.9250     1.1550 ca         1 B38      -0.067000
     14 C15         -1.4090     5.9840     1.8110 ca         1 B38      -0.131300
     15 N27          2.0050     0.0000     1.3900 n          1 B38      -0.487800
     16 C20          3.4420    -0.8440     3.1790 ca         1 B38      -0.175600
     17 C21          3.9010    -1.8400     5.3470 ca         1 B38      -0.262900
     18 C18          4.6110     0.4080     4.8750 ca         1 B38      -0.184000
     19 C19          4.0730     0.3210     3.6020 ca         1 B38      -0.058000
     20 C26          2.8770    -0.9330     1.8200 c          1 B38       0.679700
     21 C17          4.5310    -0.6560     5.7460 ca         1 B38      -0.032000
     22 C22          3.3510    -1.9410     4.0560 ca         1 B38       0.020800
     23 N23          2.8130    -3.1910     3.9520 na         1 B38      -0.038100
     24 N24          3.0130    -3.8790     5.1530 nc         1 B38      -0.494100
     25 C25          3.6490    -3.1210     6.0010 cd         1 B38       0.379800
     26 O28          3.1980    -1.8470     1.0860 o          1 B38      -0.612100
     27 H4          -0.3600     0.0990    -1.0170 hc         1 B38       0.065950
     28 H4A         -0.3600    -0.9270     0.4280 hc         1 B38       0.065950
     29 H9           1.8700     2.0070     1.9840 h1         1 B38       0.067200
     30 H9A          1.8560     0.8310     3.3110 h1         1 B38       0.067200
     31 H13         -3.1680     4.9130     2.3800 ha         1 B38       0.154000
     32 H8           1.8940     0.8870    -0.5060 h1         1 B38       0.067200
     33 H8A          1.8940    -0.8870    -0.5060 h1         1 B38       0.067200
     34 H16         -2.3120     7.1520     3.3470 hc         1 B38       0.044700
     35 H16A        -1.0860     8.0050     2.4000 hc         1 B38       0.044700
     36 H16B        -2.6800     7.6900     1.7020 hc         1 B38       0.044700
     37 H3          -2.3920     1.2870    -0.2060 hc         1 B38       0.084700
     38 H3A         -2.4230     0.2830     1.2610 hc         1 B38       0.084700
     39 H5          -0.3980     1.8510     2.8750 hc         1 B38       0.065950
     40 H5A         -0.3820     0.0890     2.6850 hc         1 B38       0.065950
     41 H11          1.2350     4.6960     0.1390 ha         1 B38       0.146000
     42 H14          0.4000     6.8260     1.0350 ha         1 B38       0.138000
     43 H18          5.0990     1.3230     5.1890 ha         1 B38       0.137000
     44 H19          4.1450     1.1670     2.9300 ha         1 B38       0.140000
     45 H17          4.9550    -0.5760     6.7400 ha         1 B38       0.135000
     46 H25          3.9380    -3.3920     7.0090 h4         1 B38       0.064800
     47 HN23         2.3490    -3.5570     3.1450 hn         1 B38       0.344700
     48 O12         -3.4450     2.3410     2.3710 o          1 B38      -0.518100
     49 C16         -1.9070     7.3000     2.3530 c3         1 B38      -0.043800
@<TRIPOS>BOND
     1     7     1 1
     2     1     6 1
     3     1    27 1
     4     1    28 1
     5    48     2 2
     6    11     2 1
     7     2     9 1
     8    11     3 ar
     9    12     3 ar
    10     3     8 1
    11    10     4 1
    12     4    15 1
    13     4    29 1
    14     4    30 1
    15    14     5 ar
    16     5    11 ar
    17     5    31 1
    18     6    15 1
    19     6    32 1
    20     6    33 1
    21    49    14 1
    22    49    34 1
    23    49    35 1
    24    49    36 1
    25     9     7 1
    26     8     7 1
    27     7    10 1
    28     9    37 1
    29     9    38 1
    30    10    39 1
    31    10    40 1
    32    13    12 ar
    33    12    41 1
    34    14    13 ar
    35    13    42 1
    36    15    20 1
    37    20    16 1
    38    16    19 ar
    39    16    22 ar
    40    22    17 ar
    41    17    25 1
    42    17    21 ar
    43    19    18 ar
    44    18    21 ar
    45    18    43 1
    46    19    44 1
    47    20    26 2
    48    21    45 1
    49    23    22 1
    50    23    24 1
    51    24    25 2
    52    25    46 1
    53    23    47 1
@<TRIPOS>SUBSTRUCTURE
     1 B38         1 TEMP              0 ****  ****    0 ROOT
