@<TRIPOS>MOLECULE
molecule
   57    61     1     0     0
SMALL
bcc


@<TRIPOS>ATOM
      1 C4           0.0000     0.0000     0.0000 c3         1 B39       0.068000
      2 C5           1.5420     0.0000     0.0000 c3         1 B39      -0.097400
      3 C6           1.9820     0.0000     1.4740 c3         1 B39      -0.059700
      4 C8           2.8070     1.2520     1.7750 c3         1 B39       0.144400
      5 C10         -0.8810    -2.6440    -2.3250 cc         1 B39      -0.141200
      6 C13         -1.3130    -0.4000    -2.1050 ca         1 B39       0.525800
      7 C15         -2.5910     0.9030    -3.5060 ca         1 B39       0.751900
      8 C17         -2.3880    -1.3280    -4.0610 ca         1 B39       0.785200
      9 C20         -3.2210    -3.2410    -7.1550 c3         1 B39      -0.095400
     10 C21         -4.9830    -2.3810    -5.7220 ca         1 B39      -0.117300
     11 C22         -5.4000    -3.6260    -6.1550 ca         1 B39      -0.088300
     12 C24         -7.5920    -3.1940    -5.2840 ca         1 B39      -0.116000
     13 C26         -5.8720    -1.5440    -5.0690 ca         1 B39      -0.092000
     14 C19         -4.2520    -4.3430    -6.8320 c3         1 B39      -0.040100
     15 C23         -6.7060    -4.0300    -5.9340 ca         1 B39      -0.118000
     16 C25         -7.1740    -1.9490    -4.8490 ca         1 B39      -0.135000
     17 C1          -3.5260    -2.1770    -6.0790 c3         1 B39       0.285800
     18 N18         -2.6800    -2.3870    -4.9010 nu         1 B39      -0.880900
     19 N16         -2.8660    -0.1120    -4.3060 nb         1 B39      -0.834000
     20 N14         -1.8380     0.7780    -2.4340 nb         1 B39      -0.827000
     21 C12         -1.5800    -1.5100    -2.9290 ca         1 B39      -0.411400
     22 C11         -0.2630    -2.1790    -1.2280 cd         1 B39      -0.137100
     23 N7          -0.5140    -0.8390    -1.0850 na         1 B39      -0.169100
     24 C3          -0.3800    -0.5990     1.3760 c3         1 B39      -0.122400
     25 C2           0.6910     0.0020     2.3190 c3         1 B39       0.138100
     26 O9           0.3400     1.3360     2.6910 oh         1 B39      -0.651800
     27 O27          3.3070     1.1850     3.1130 os         1 B39      -0.510500
     28 S28          4.1450     2.3870     3.5210 s6         1 B39       1.502400
     29 O29          4.7180     2.0670     4.7810 o          1 B39      -0.531800
     30 O30          4.9200     2.7420     2.3830 o          1 B39      -0.531800
     31 N31          3.1040     3.6460     3.7870 nz         1 B39      -0.829500
     32 H4          -0.3760     1.0120    -0.0860 h1         1 B39       0.103700
     33 H5           1.9120     0.8890    -0.4960 hc         1 B39       0.072200
     34 H5A          1.9120    -0.8890    -0.4960 hc         1 B39       0.072200
     35 H6           2.5610    -0.8910     1.6870 hc         1 B39       0.096700
     36 H8           3.6380     1.3120     1.0820 h1         1 B39       0.075700
     37 H8A          2.1830     2.1310     1.6660 h1         1 B39       0.075700
     38 H10         -0.8660    -3.6630    -2.6930 ha         1 B39       0.157000
     39 H15         -3.0010     1.8770    -3.7420 h5         1 B39       0.061100
     40 H24         -8.6130    -3.5130    -5.1130 ha         1 B39       0.134000
     41 H26         -5.5450    -0.5690    -4.7280 ha         1 B39       0.141000
     42 H19         -3.8150    -5.0590    -6.1470 hc         1 B39       0.056700
     43 H19A        -4.5990    -4.7950    -7.7530 hc         1 B39       0.056700
     44 H23         -7.0340    -5.0040    -6.2750 ha         1 B39       0.131000
     45 H25         -7.8680    -1.2920    -4.3390 ha         1 B39       0.132000
     46 H1          -3.3760    -1.1830    -6.4830 h1         1 B39       0.090700
     47 HN18        -2.2910    -3.2910    -4.7190 hn         1 B39       0.451800
     48 H11          0.3430    -2.7750    -0.5560 h4         1 B39       0.165000
     49 H3          -0.3070    -1.6800     1.3560 hc         1 B39       0.078700
     50 H3A         -1.3720    -0.2790     1.6720 hc         1 B39       0.078700
     51 H2           0.8150    -0.6220     3.1950 h1         1 B39       0.060700
     52 HO9         -0.2900     1.3100     3.3920 ho         1 B39       0.424000
     53 HN31         2.3270     3.3270     4.3310 hn         1 B39       0.497800
     54 HN3A         2.7750     3.9980     2.9100 hn         1 B39       0.497800
     55 H20         -2.2160    -3.6230    -7.0260 hc         1 B39       0.063200
     56 H313         3.5800     4.3740     4.2830 hn         1 B39       0.497800
     57 H20A        -3.4080    -2.8350    -8.1420 hc         1 B39       0.063200
@<TRIPOS>BOND
     1     1     2 1
     2     1    23 1
     3     1    24 1
     4     2     3 1
     5     3     4 1
     6     3    25 1
     7     4    27 1
     8     5    21 1
     9     5    22 2
    10     6    20 ar
    11     6    21 ar
    12     6    23 1
    13     7    19 ar
    14     7    20 ar
    15     8    18 1
    16     8    19 ar
    17     8    21 ar
    18     9    14 1
    19     9    17 1
    20    10    11 ar
    21    10    13 ar
    22    10    17 1
    23    11    14 1
    24    11    15 ar
    25    12    15 ar
    26    12    16 ar
    27    13    16 ar
    28    17    18 1
    29    22    23 1
    30    24    25 1
    31    25    26 1
    32    27    28 1
    33    28    29 2
    34    28    30 2
    35    28    31 1
    36     1    32 1
    37     2    33 1
    38     2    34 1
    39     3    35 1
    40     4    36 1
    41     4    37 1
    42     5    38 1
    43     7    39 1
    44     9    55 1
    45     9    57 1
    46    12    40 1
    47    13    41 1
    48    14    42 1
    49    14    43 1
    50    15    44 1
    51    16    45 1
    52    17    46 1
    53    18    47 1
    54    22    48 1
    55    24    49 1
    56    24    50 1
    57    25    51 1
    58    26    52 1
    59    31    53 1
    60    31    54 1
    61    56    31 1
@<TRIPOS>SUBSTRUCTURE
     1 B39         1 TEMP              0 ****  ****    0 ROOT
