@<TRIPOS>MOLECULE
B3B
   35    38     1     0     0
SMALL
bcc


@<TRIPOS>ATOM
      1 O8           0.0000     0.0000     0.0000 o          1 B3B      -0.306000
      2 C7           1.2130     0.0000     0.0000 c2         1 B3B       0.237000
      3 C5           1.9460     0.0000     1.2700 c2         1 B3B      -0.194000
      4 C6           3.3550    -0.1090     1.2790 c3         1 B3B      -0.075000
      5 C1           4.0370    -0.1070     2.4980 c2         1 B3B      -0.037000
      6 C2           3.3350     0.0010     3.6800 c2         1 B3B      -0.093000
      7 C3           1.9520     0.1080     3.6720 c2         1 B3B      -0.084000
      8 C4           1.2580     0.1150     2.4820 c2         1 B3B      -0.047000
      9 C9           4.0980    -0.2270     0.0170 c2         1 B3B      -0.453000
     10 N10          3.4710    -0.1210    -1.1180 n2         1 B3B      -0.032000
     11 N11          4.1780    -0.2320    -2.3230 nu         1 B3B       0.228000
     12 C12          3.5110    -0.1200    -3.5310 c2         1 B3B      -0.223000
     13 N13          4.0620    -0.2060    -4.7030 n2         1 B3B      -0.085000
     14 C14          3.2640    -0.0730    -5.7530 c2         1 B3B      -0.009000
     15 C15          1.9670     0.1370    -5.4690 c2         1 B3B      -0.334000
     16 S16          1.7810     0.1530    -3.7160 ss         1 B3B       0.275000
     17 C17          3.7690    -0.1500    -7.1450 ca         1 B3B      -0.029000
     18 C18          2.8900     0.0030    -8.2170 ca         1 B3B      -0.080000
     19 C19          3.3650    -0.0690    -9.5110 ca         1 B3B      -0.105000
     20 C20          4.7100    -0.2930    -9.7450 ca         1 B3B      -0.093000
     21 C21          5.5870    -0.4450    -8.6860 ca         1 B3B      -0.105000
     22 C22          5.1240    -0.3690    -7.3880 ca         1 B3B      -0.080000
     23 H1           1.7540    -0.0840    -0.9350 h4         1 B3B       0.133000
     24 H2           5.1170    -0.1910     2.5150 ha         1 B3B       0.126000
     25 H3           3.8680    -0.0000     4.6230 ha         1 B3B       0.109000
     26 H4           1.4140     0.1950     4.6080 ha         1 B3B       0.108000
     27 H5           0.1780     0.1990     2.4860 ha         1 B3B       0.128000
     28 H6           3.4910    -1.0150     0.4450 DU         1 B3B       0.317000
     29 H7           5.1670    -0.3870    -2.3100 hn         1 B3B       0.097000
     30 H8           1.1710     0.2680    -6.1920 h4         1 B3B       0.169000
     31 H9           1.8370     0.1780    -8.0350 ha         1 B3B       0.113500
     32 H10          2.6830     0.0490   -10.3440 ha         1 B3B       0.103500
     33 H11          5.0780    -0.3510   -10.7620 ha         1 B3B       0.102000
     34 H12          6.6390    -0.6170    -8.8760 ha         1 B3B       0.103500
     35 H13          5.8110    -0.4880    -6.5590 ha         1 B3B       0.113500
@<TRIPOS>BOND
     1     1     2 1   
     2     2     3 1   
     3     2    23 1   
     4     3     4 1   
     5     3     8 1   
     6     4     5 1   
     7     4     9 1   
     8     4    28 1   
     9     5     6 1   
    10     5    24 1   
    11     6     7 1   
    12     6    25 1   
    13     7     8 1   
    14     7    26 1   
    15     8    27 1   
    16     9    10 1   
    17     9    28 1   
    18    10    11 1   
    19    11    12 1   
    20    11    29 1   
    21    12    13 1   
    22    12    16 1   
    23    13    14 1   
    24    14    15 1   
    25    14    17 1   
    26    15    16 1   
    27    15    30 1   
    28    17    18 1   
    29    17    22 1   
    30    18    19 1   
    31    18    31 1   
    32    19    20 1   
    33    19    32 1   
    34    20    21 1   
    35    20    33 1   
    36    21    22 1   
    37    21    34 1   
    38    22    35 1   
@<TRIPOS>SUBSTRUCTURE
     1 B3B         1 TEMP              0 ****  ****    0 ROOT
