@<TRIPOS>MOLECULE
molecule
   35    37     1     0     0
SMALL
bcc


@<TRIPOS>ATOM
      1 O8           0.0000     0.0000     0.0000 o          1 B3B      -0.531100
      2 C7           1.2130     0.0000     0.0000 c          1 B3B       0.551500
      3 C5           1.9460     0.0000     1.2700 ca         1 B3B      -0.162600
      4 C6           3.3550    -0.1090     1.2790 ca         1 B3B      -0.098900
      5 C1           4.0370    -0.1070     2.4980 ca         1 B3B      -0.119000
      6 C2           3.3350     0.0010     3.6800 ca         1 B3B      -0.107000
      7 C3           1.9520     0.1080     3.6720 ca         1 B3B      -0.128000
      8 C4           1.2580     0.1150     2.4820 ca         1 B3B      -0.075000
      9 C9           4.0980    -0.2270     0.0170 ce         1 B3B       0.400800
     10 N10          3.4710    -0.1210    -1.1180 n2         1 B3B      -0.401400
     11 N11          4.1780    -0.2320    -2.3230 nu         1 B3B      -0.584000
     12 C12          3.5110    -0.1200    -3.5310 cc         1 B3B       0.751300
     13 N13          4.0620    -0.2060    -4.7030 nd         1 B3B      -0.756000
     14 C14          3.2640    -0.0730    -5.7530 cd         1 B3B       0.464800
     15 C15          1.9670     0.1370    -5.4690 cc         1 B3B      -0.207400
     16 S16          1.7810     0.1530    -3.7160 ss         1 B3B      -0.214300
     17 C17          3.7690    -0.1500    -7.1450 ca         1 B3B      -0.121500
     18 C18          2.8900     0.0030    -8.2170 ca         1 B3B      -0.104500
     19 C19          3.3650    -0.0690    -9.5110 ca         1 B3B      -0.133500
     20 C20          4.7100    -0.2930    -9.7450 ca         1 B3B      -0.123000
     21 C21          5.5870    -0.4450    -8.6860 ca         1 B3B      -0.133500
     22 C22          5.1240    -0.3690    -7.3880 ca         1 B3B      -0.104500
     23 H1           1.7540    -0.0840    -0.9350 h4         1 B3B       0.063200
     24 H2           5.1170    -0.1910     2.5150 ha         1 B3B       0.135000
     25 H3           3.8680    -0.0000     4.6230 ha         1 B3B       0.136000
     26 H4           1.4140     0.1950     4.6080 ha         1 B3B       0.138000
     27 H5           0.1780     0.1990     2.4860 ha         1 B3B       0.158000
     28 H6           5.1670    -0.4010     0.0310 h4         1 B3B       0.001800
     29 H7           5.1660    -0.3920    -2.3100 hn         1 B3B       0.450800
     30 H8           1.1710     0.2680    -6.1920 h4         1 B3B       0.184000
     31 H9           1.8370     0.1780    -8.0350 ha         1 B3B       0.140000
     32 H10          2.6830     0.0490   -10.3440 ha         1 B3B       0.130500
     33 H11          5.0780    -0.3510   -10.7620 ha         1 B3B       0.128000
     34 H12          6.6390    -0.6170    -8.8760 ha         1 B3B       0.130500
     35 H13          5.8110    -0.4880    -6.5590 ha         1 B3B       0.140000
@<TRIPOS>BOND
     1    15    16 1
     2    15    14 2
     3    18    19 ar
     4    18    17 ar
     5    19    20 ar
     6    16    12 1
     7     6     5 ar
     8     6     7 ar
     9    14    17 1
    10    14    13 1
    11    17    22 ar
    12    20    21 ar
    13     5     4 ar
    14     7     8 ar
    15    12    13 2
    16    12    11 1
    17    22    21 ar
    18    10    11 1
    19    10     9 2
    20     4     9 1
    21     4     3 ar
    22     8     3 ar
    23     3     2 1
    24     2     1 2
    25     2    23 1
    26     5    24 1
    27     6    25 1
    28     7    26 1
    29     8    27 1
    30     9    28 1
    31    11    29 1
    32    15    30 1
    33    18    31 1
    34    19    32 1
    35    20    33 1
    36    21    34 1
    37    22    35 1
@<TRIPOS>SUBSTRUCTURE
     1 B3B         1 TEMP              0 ****  ****    0 ROOT
