@<TRIPOS>MOLECULE
B3G
   66    67     1     0     0
SMALL
bcc


@<TRIPOS>ATOM
      1 C12          0.0000     0.0000     0.0000 c          1 B3G       0.626500
      2 C14          0.6390    -0.6320     2.1430 c3         1 B3G       0.041000
      3 C15          1.8920     0.0000     1.4990 c3         1 B3G      -0.031400
      4 O01         -4.0330     0.4980    -4.3840 o          1 B3G      -0.680000
      5 N03         -1.9780    -0.0110    -5.0510 ns         1 B3G      -0.123900
      6 C04         -1.6770    -0.6640    -3.7750 c3         1 B3G      -0.062300
      7 N06          0.3230    -1.1930    -2.4200 ns         1 B3G      -0.146900
      8 C07          1.7690    -1.1740    -2.1900 c3         1 B3G       0.024700
      9 C08          2.4140    -2.3700    -2.8950 c3         1 B3G       0.160900
     10 O09          2.2530    -2.2320    -4.3080 oh         1 B3G      -0.525800
     11 C10          2.0490    -1.2570    -0.6880 c3         1 B3G      -0.055400
     12 C11          1.5130     0.0000     0.0000 c3         1 B3G      -0.134700
     13 N13         -0.4620    -0.3490     1.2140 ns         1 B3G      -0.205900
     14 O16         -0.6950     0.2780    -0.9530 o          1 B3G      -0.678500
     15 O17          0.5490    -0.1340    -4.3560 o          1 B3G      -0.687100
     16 C18         -2.1680    -2.1130    -3.8160 c3         1 B3G      -0.047400
     17 C20         -4.1750    -3.5740    -4.0970 c3         1 B3G      -0.001600
     18 C21         -4.3080    -1.5310    -2.6640 c3         1 B3G      -0.001600
     19 O22         -3.4660     1.1430    -6.4300 os         1 B3G      -0.431900
     20 C23         -4.7910     1.7170    -6.5810 c3         1 B3G       0.244400
     21 C24         -4.9180     2.3490    -7.9680 c3         1 B3G       0.014900
     22 C25         -6.2940     2.9440    -8.1240 ca         1 B3G      -0.069300
     23 C26         -7.3250     2.1760    -8.6300 ca         1 B3G      -0.092000
     24 C27         -8.5900     2.7210    -8.7680 ca         1 B3G      -0.029600
     25 Cl1         -9.8870     1.7550    -9.4020 cl         1 B3G      -0.039400
     26 C29         -8.8210     4.0340    -8.4010 ca         1 B3G      -0.108000
     27 C30         -7.7880     4.8020    -7.8960 ca         1 B3G      -0.092000
     28 C31         -6.5250     4.2580    -7.7580 ca         1 B3G      -0.094000
     29 S            1.6140    -3.9010    -2.3410 s6         1 B3G       0.948800
     30 H1           0.7720    -1.7010     2.2490 h1         1 B3G       0.015700
     31 H2           0.4430    -0.1750     3.1050 h1         1 B3G       0.015700
     32 H3           2.7660    -0.6150     1.6750 hc         1 B3G       0.025200
     33 H4           2.0410     1.0110     1.8580 hc         1 B3G       0.025200
     34 H5          -3.9980    -1.5480    -4.7910 hc         1 B3G       0.035700
     35 H6          -1.2760     0.0440    -5.7630 hn         1 B3G       0.195500
     36 H7          -2.1770    -0.1360    -2.9730 h1         1 B3G       0.082700
     37 H8          -0.2820    -1.6440    -1.7630 hn         1 B3G       0.197500
     38 H9           2.1860    -0.2550    -2.5850 h1         1 B3G       0.043700
     39 H10          3.4690    -2.4060    -2.6530 h2         1 B3G       0.027700
     40 H11          3.0750    -2.4060    -4.7360 ho         1 B3G       0.374000
     41 H12          1.5580    -2.1310    -0.2770 hc         1 B3G       0.054200
     42 H13          3.1170    -1.3310    -0.5230 hc         1 B3G       0.054200
     43 H14          1.8890     0.8930    -0.4830 hc         1 B3G       0.050700
     44 H15         -1.4290    -0.5250     1.4020 hn         1 B3G       0.189500
     45 H16         -1.8680    -2.6210    -2.9080 hc         1 B3G       0.053700
     46 H17         -1.7350    -2.6160    -4.6720 hc         1 B3G       0.053700
     47 H18         -5.2570    -3.5900    -4.1490 hc         1 B3G       0.002700
     48 H19         -3.7640    -4.0670    -4.9700 hc         1 B3G       0.002700
     49 H20         -3.8490    -4.0910    -3.2030 hc         1 B3G       0.002700
     50 H21         -5.3810    -1.4450    -2.7890 hc         1 B3G       0.002700
     51 H22         -4.0930    -2.1370    -1.7920 hc         1 B3G       0.002700
     52 H23         -3.8800    -0.5450    -2.5340 hc         1 B3G       0.002700
     53 H24         -4.9450     2.4750    -5.8230 h1         1 B3G       0.011700
     54 H25         -5.5370     0.9380    -6.4700 h1         1 B3G       0.011700
     55 H26         -4.1730     3.1280    -8.0790 hc         1 B3G       0.026200
     56 H27         -4.7640     1.5910    -8.7260 hc         1 B3G       0.026200
     57 H28         -7.1380     1.1560    -8.9420 ha         1 B3G       0.121000
     58 H29         -9.8110     4.4600    -8.5090 ha         1 B3G       0.110000
     59 H30         -7.9690     5.8310    -7.6090 ha         1 B3G       0.102000
     60 H31         -5.7160     4.8600    -7.3620 ha         1 B3G       0.111000
     61 O1           0.2750    -3.9640    -2.8160 o          1 B3G      -0.652867
     62 O3           2.3340    -5.0030    -3.1040 o          1 B3G      -0.652867
     63 O2           1.9210    -4.1600    -0.9790 o          1 B3G      -0.652867
     64 C05         -0.1890    -0.6440    -3.5390 c          1 B3G       0.607100
     65 C02         -3.1900     0.5420    -5.2570 c          1 B3G       0.668100
     66 C19         -3.6940    -2.1310    -3.9310 c3         1 B3G      -0.065700
@<TRIPOS>BOND
     1     1    12 1   
     2     1    13 1   
     3     1    14 2   
     4     2     3 1   
     5     2    13 1   
     6     2    30 1   
     7     2    31 1   
     8     3    12 1   
     9     3    32 1   
    10     3    33 1   
    11     4    65 2   
    12     5     6 1   
    13     5    35 1   
    14     5    65 1   
    15     6    16 1   
    16     6    36 1   
    17     6    64 1   
    18     7     8 1   
    19     7    37 1   
    20     7    64 1   
    21     8     9 1   
    22     8    11 1   
    23     8    38 1   
    24     9    10 1   
    25     9    29 1   
    26     9    39 1   
    27    10    40 1   
    28    11    12 1   
    29    11    41 1   
    30    11    42 1   
    31    12    43 1   
    32    13    44 1   
    33    15    64 2   
    34    16    45 1   
    35    16    46 1   
    36    16    66 1   
    37    17    47 1   
    38    17    48 1   
    39    17    49 1   
    40    17    66 1   
    41    18    50 1   
    42    18    51 1   
    43    18    52 1   
    44    18    66 1   
    45    19    20 1   
    46    19    65 1   
    47    20    21 1   
    48    20    53 1   
    49    20    54 1   
    50    21    22 1   
    51    21    55 1   
    52    21    56 1   
    53    22    23 ar  
    54    22    28 ar  
    55    23    24 ar  
    56    23    57 1   
    57    24    25 1   
    58    24    26 ar  
    59    26    27 ar  
    60    26    58 1   
    61    27    28 ar  
    62    27    59 1   
    63    28    60 1   
    64    29    61 1   
    65    29    62 1   
    66    29    63 1   
    67    34    66 1   
@<TRIPOS>SUBSTRUCTURE
     1 B3G         1 TEMP              0 ****  ****    0 ROOT
