@<TRIPOS>MOLECULE
molecule
   51    50     1     0     0
SMALL
bcc


@<TRIPOS>ATOM
      1 O11          0.0000     0.0000     0.0000 o          1 B3H      -0.564000
      2 C11          1.2080     0.0000     0.0000 c          1 B3H       0.634100
      3 C12          1.9610     0.0000     1.3060 c3         1 B3H      -0.121400
      4 C13          0.9660    -0.0010     2.4680 c3         1 B3H      -0.073400
      5 C14          1.7300    -0.0020     3.7940 c3         1 B3H      -0.084400
      6 C15          0.7340    -0.0020     4.9560 c3         1 B3H      -0.080400
      7 C16          1.4990    -0.0030     6.2820 c3         1 B3H      -0.082400
      8 C17          0.5040    -0.0040     7.4440 c3         1 B3H      -0.081400
      9 C18          1.2670    -0.0040     8.7700 c3         1 B3H      -0.084400
     10 C19          0.2720    -0.0050     9.9320 c3         1 B3H      -0.092100
     11 O21          3.1470     1.1910    -5.7680 o          1 B3H      -0.561000
     12 C21          3.3620     1.7590    -4.7240 c          1 B3H       0.634100
     13 C22          4.1440     3.0470    -4.7140 c3         1 B3H      -0.123400
     14 C23          4.5450     3.4110    -6.1460 c3         1 B3H      -0.074400
     15 C24          5.3400     4.7190    -6.1360 c3         1 B3H      -0.094100
     16 C41          1.1560     0.0010    -2.4190 c3         1 B3H       0.162400
     17 O41          1.8810     0.0000    -1.1610 os         1 B3H      -0.399900
     18 C42          2.1500     0.0020    -3.5810 c3         1 B3H       0.160100
     19 O42          2.9040     1.2430    -3.5730 os         1 B3H      -0.417900
     20 C43          3.1120    -1.1790    -3.4310 c3         1 B3H       0.122400
     21 O43          3.7350    -1.1250    -2.1470 oh         1 B3H      -0.581800
     22 H121         2.5830     0.8850     1.3650 hc         1 B3H       0.072700
     23 H122         2.5840    -0.8840     1.3640 hc         1 B3H       0.072700
     24 H131         0.3430    -0.8860     2.4100 hc         1 B3H       0.057700
     25 H132         0.3430     0.8830     2.4110 hc         1 B3H       0.057700
     26 H141         2.3520    -0.8860     3.8510 hc         1 B3H       0.040700
     27 H142         2.3520     0.8830     3.8520 hc         1 B3H       0.040700
     28 H151         0.1120    -0.8870     4.8970 hc         1 B3H       0.043700
     29 H152         0.1110     0.8820     4.8980 hc         1 B3H       0.043700
     30 H161         2.1210     0.8820     6.3400 hc         1 B3H       0.040700
     31 H162         2.1220    -0.8870     6.3390 hc         1 B3H       0.040700
     32 H171        -0.1190    -0.8880     7.3860 hc         1 B3H       0.041700
     33 H172        -0.1190     0.8800     7.3870 hc         1 B3H       0.041700
     34 H181         1.8900     0.8800     8.8280 hc         1 B3H       0.039700
     35 H182         1.8900    -0.8890     8.8270 hc         1 B3H       0.039700
     36 H191         0.8130    -0.0280    10.8700 hc         1 B3H       0.032367
     37 H192        -0.3360     0.8900     9.8870 hc         1 B3H       0.032367
     38 H193        -0.3650    -0.8790     9.8610 hc         1 B3H       0.032367
     39 H221         5.0350     2.9240    -4.1100 hc         1 B3H       0.073700
     40 H222         3.5320     3.8380    -4.2980 hc         1 B3H       0.073700
     41 H231         3.6540     3.5340    -6.7500 hc         1 B3H       0.057200
     42 H232         5.1570     2.6190    -6.5610 hc         1 B3H       0.057200
     43 H241         5.6580     4.9550    -7.1440 hc         1 B3H       0.036033
     44 H242         4.7140     5.5180    -5.7570 hc         1 B3H       0.036033
     45 H243         6.2090     4.6080    -5.4990 hc         1 B3H       0.036033
     46 H411         0.5330    -0.8840    -2.4780 h1         1 B3H       0.057700
     47 H412         0.5330     0.8850    -2.4770 h1         1 B3H       0.057700
     48 H42          1.6120    -0.0860    -4.5170 h1         1 B3H       0.084700
     49 H431         2.5610    -2.1070    -3.5270 h1         1 B3H       0.032700
     50 H432         3.8700    -1.1280    -4.2030 h1         1 B3H       0.032700
     51 HO43         4.4410    -1.7490    -2.1140 ho         1 B3H       0.395000
@<TRIPOS>BOND
     1     1     2 2
     2     2     3 1
     3     2    17 1
     4     3     4 1
     5     3    22 1
     6     3    23 1
     7     4     5 1
     8     4    24 1
     9     4    25 1
    10     5     6 1
    11     5    26 1
    12     5    27 1
    13     6     7 1
    14     6    28 1
    15     6    29 1
    16     7     8 1
    17     7    30 1
    18     7    31 1
    19     8     9 1
    20     8    32 1
    21     8    33 1
    22     9    10 1
    23     9    34 1
    24     9    35 1
    25    10    36 1
    26    10    37 1
    27    10    38 1
    28    11    12 2
    29    12    13 1
    30    12    19 1
    31    13    14 1
    32    13    39 1
    33    13    40 1
    34    14    15 1
    35    14    41 1
    36    14    42 1
    37    15    43 1
    38    15    44 1
    39    15    45 1
    40    16    17 1
    41    16    18 1
    42    16    46 1
    43    16    47 1
    44    18    19 1
    45    18    20 1
    46    18    48 1
    47    20    21 1
    48    20    49 1
    49    20    50 1
    50    21    51 1
@<TRIPOS>SUBSTRUCTURE
     1 B3H         1 TEMP              0 ****  ****    0 ROOT
