@<TRIPOS>MOLECULE
B3H
   51    50     1     0     0
SMALL
bcc


@<TRIPOS>ATOM
      1 O11        -0.1960    1.0220   -0.2940 o         1 B3H     -0.536000
      2 C11         0.9670    0.6940   -0.0590 c         1 B3H      0.637100
      3 C12         1.7260    0.7320    1.2300 c3        1 B3H     -0.127400
      4 C13         0.8590    0.2730    2.3840 c3        1 B3H     -0.079400
      5 C14         1.5850    0.4450    3.7010 c3        1 B3H     -0.079400
      6 C15         0.7300   -0.0260    4.8580 c3        1 B3H     -0.079400
      7 C16         1.4500    0.1490    6.1780 c3        1 B3H     -0.079400
      8 C17         0.5960   -0.3220    7.3350 c3        1 B3H     -0.079400
      9 C18         1.3140   -0.1470    8.6560 c3        1 B3H     -0.080400
     10 C19         0.4670   -0.6140    9.8120 c3        1 B3H     -0.093100
     11 O21         3.4570    0.4870   -5.6570 o         1 B3H     -0.543000
     12 C21         3.6060    1.3140   -4.7560 c         1 B3H      0.642100
     13 C22         4.4300    2.5630   -4.7410 c3        1 B3H     -0.127400
     14 C23         4.4480    3.2220   -6.1050 c3        1 B3H     -0.080400
     15 C24         5.3880    4.3990   -6.1230 c3        1 B3H     -0.094100
     16 C41         1.1080    0.2020   -2.3930 c3        1 B3H      0.136400
     17 O41         1.7280    0.2290   -1.1010 os        1 B3H     -0.455900
     18 C42         2.1950   -0.1010   -3.4240 c3        1 B3H      0.102100
     19 O42         2.9510    1.1120   -3.5680 os        1 B3H     -0.435900
     20 C43         3.1250   -1.2440   -3.0100 c3        1 B3H      0.122400
     21 O43         4.1960   -0.8160   -2.1990 oh        1 B3H     -0.595800
     22 H121        2.6450    0.0920    1.1480 hc        1 B3H      0.079700
     23 H122        2.0590    1.7930    1.3900 hc        1 B3H      0.079700
     24 H131        0.5830   -0.8040    2.2420 hc        1 B3H      0.057700
     25 H132       -0.0960    0.8630    2.3910 hc        1 B3H      0.057700
     26 H141        1.8520    1.5250    3.8470 hc        1 B3H      0.041700
     27 H142        2.5460   -0.1340    3.6820 hc        1 B3H      0.041700
     28 H151       -0.2320    0.5500    4.8740 hc        1 B3H      0.042700
     29 H152        0.4650   -1.1070    4.7140 hc        1 B3H      0.042700
     30 H161        2.4120   -0.4280    6.1610 hc        1 B3H      0.039700
     31 H162        1.7150    1.2290    6.3210 hc        1 B3H      0.039700
     32 H171        0.3300   -1.4030    7.1920 hc        1 B3H      0.040700
     33 H172       -0.3660    0.2550    7.3520 hc        1 B3H      0.040700
     34 H181        1.5800    0.9340    8.7960 hc        1 B3H      0.038700
     35 H182        2.2760   -0.7240    8.6380 hc        1 B3H      0.038700
     36 H191        0.2110   -1.6960    9.7020 hc        1 B3H      0.032700
     37 H192        1.0140   -0.4760   10.7750 hc        1 B3H      0.032700
     38 H193       -0.4860   -0.0330    9.8620 hc        1 B3H      0.032700
     39 H221        5.4710    2.2700   -4.4340 hc        1 B3H      0.081200
     40 H222        4.0320    3.2700   -3.9660 hc        1 B3H      0.081200
     41 H231        4.7580    2.4680   -6.8770 hc        1 B3H      0.056700
     42 H232        3.4120    3.5590   -6.3710 hc        1 B3H      0.056700
     43 H241        6.4330    4.0750   -5.8960 hc        1 B3H      0.037700
     44 H242        5.0850    5.1610   -5.3650 hc        1 B3H      0.037700
     45 H243        5.3800    4.8800   -7.1300 hc        1 B3H      0.037700
     46 H411        0.6250    1.1940   -2.5980 h1        1 B3H      0.068200
     47 H412        0.3350   -0.6100   -2.3990 h1        1 B3H      0.068200
     48 H42         1.6940   -0.3540   -4.4010 h1        1 B3H      0.087700
     49 H431        2.5240   -2.0270   -2.4760 h1        1 B3H      0.056700
     50 H432        3.6160   -1.6840   -3.9200 h1        1 B3H      0.056700
     51 HO43        3.8280   -0.2510   -1.5060 ho        1 B3H      0.416000
@<TRIPOS>BOND
     1    1    2 2   
     2    2    3 1   
     3    2   17 1   
     4    3    4 1   
     5    3   22 1   
     6    3   23 1   
     7    4    5 1   
     8    4   24 1   
     9    4   25 1   
    10    5    6 1   
    11    5   26 1   
    12    5   27 1   
    13    6    7 1   
    14    6   28 1   
    15    6   29 1   
    16    7    8 1   
    17    7   30 1   
    18    7   31 1   
    19    8    9 1   
    20    8   32 1   
    21    8   33 1   
    22    9   10 1   
    23    9   34 1   
    24    9   35 1   
    25   10   36 1   
    26   10   37 1   
    27   10   38 1   
    28   11   12 2   
    29   12   13 1   
    30   12   19 1   
    31   13   14 1   
    32   13   39 1   
    33   13   40 1   
    34   14   15 1   
    35   14   41 1   
    36   14   42 1   
    37   15   43 1   
    38   15   44 1   
    39   15   45 1   
    40   16   17 1   
    41   16   18 1   
    42   16   46 1   
    43   16   47 1   
    44   18   19 1   
    45   18   20 1   
    46   18   48 1   
    47   20   21 1   
    48   20   49 1   
    49   20   50 1   
    50   21   51 1   
@<TRIPOS>SUBSTRUCTURE
     1 B3H         1 TEMP              0 ****  ****    0 ROOT
