@<TRIPOS>MOLECULE
B3I
   14    13     1     0     0
SMALL
bcc


@<TRIPOS>ATOM
      1 C2          0.0130   -0.2090   -0.1720 c2        1 B3I     -0.237000
      2 C3          1.4330    0.0700   -0.2270 c2        1 B3I     -0.500000
      3 C5          0.9880   -0.1110    2.7600 c2        1 B3I     -0.375000
      4 C6         -0.0460    0.4970    2.1600 c2        1 B3I     -0.020000
      5 O1         -2.8900    0.8740    1.1240 o         1 B3I     -0.523500
      6 O2         -2.6440   -1.3530    1.3080 o         1 B3I     -0.523500
      7 C1         -0.6900   -0.0090    0.9580 c2        1 B3I     -0.070000
      8 C4          2.2780    0.1330    0.7920 c1        1 B3I      0.167000
      9 I1         -0.7760   -0.8890   -1.9060 i         1 B3I      0.138000
     10 I2          2.3340    0.4580   -2.0020 i         1 B3I      0.156000
     11 I3          1.8790    0.5690    4.4370 i         1 B3I      0.092000
     12 H6         -0.5020    1.4290    2.5470 ha        1 B3I      0.163000
     13 H4          1.3550   -1.1030    2.4570 h4        1 B3I      0.163000
     14 C          -2.2160   -0.1880    1.1270 c2        1 B3I      0.372000
@<TRIPOS>BOND
     1    1    2 1   
     2    1    7 1   
     3    1    9 1   
     4    2    8 1   
     5    2   10 1   
     6    3    4 1   
     7    3   11 1   
     8    3   13 1   
     9    4    7 1   
    10    4   12 1   
    11    5   14 1   
    12    6   14 1   
    13    7   14 1   
@<TRIPOS>SUBSTRUCTURE
     1 B3I         1 TEMP              0 ****  ****    0 ROOT
