@<TRIPOS>MOLECULE
molecule
   14    14     1     0     0
SMALL
bcc


@<TRIPOS>ATOM
      1 C2           0.0000     0.0000     0.0000 ca         1 B3I       0.095900
      2 C3           1.3810     0.0000     0.0000 ca         1 B3I       0.066900
      3 C5           1.3940     0.0030     2.3990 ca         1 B3I       0.043900
      4 C6           0.0140     0.0080     2.4150 ca         1 B3I      -0.047000
      5 O1          -2.7850     0.0150     0.1720 o          1 B3I      -0.803300
      6 O2          -2.8380     0.0180     2.3900 o          1 B3I      -0.803300
      7 C1          -0.6950     0.0090     1.2110 ca         1 B3I      -0.085600
      8 C4           2.0750     0.0000     1.1950 ca         1 B3I      -0.099000
      9 I1          -1.0510     0.0010    -1.8130 i          1 B3I      -0.122900
     10 I2           2.4250    -0.0060    -1.8150 i          1 B3I      -0.202900
     11 I3           2.4570     0.0020     4.2050 i          1 B3I      -0.217900
     12 H6          -0.5190     0.0130     3.3580 ha         1 B3I       0.174000
     13 H4           3.1580    -0.0020     1.1890 ha         1 B3I       0.132000
     14 C           -2.1710     0.0140     1.2200 c          1 B3I       0.869200
@<TRIPOS>BOND
     1     1     2 ar
     2     1     7 ar
     3     1     9 1
     4     2     8 ar
     5     2    10 1
     6     3     4 ar
     7     3     8 ar
     8     3    11 1
     9     4     7 ar
    10     4    12 1
    11    14     5 1
    12    14     6 1
    13    14     7 1
    14     8    13 1
@<TRIPOS>SUBSTRUCTURE
     1 B3I         1 TEMP              0 ****  ****    0 ROOT
