@<TRIPOS>MOLECULE
B3N
   47    47     1     0     0
SMALL
bcc


@<TRIPOS>ATOM
      1 O23          0.0000     0.0000     0.0000 o          1 B3N      -0.659100
      2 C13          1.2160     0.0000     0.0000 c          1 B3N       0.607700
      3 C14          1.9540     0.0000     1.2770 ca         1 B3N      -0.224600
      4 C15          1.2570     0.0010     2.4880 ca         1 B3N      -0.005500
      5 C16          1.9490     0.0010     3.6780 ca         1 B3N      -0.208000
      6 C17          3.3400     0.0020     3.6760 ca         1 B3N       0.099600
      7 N20          4.0370     0.0020     4.8800 nh         1 B3N      -0.386000
      8 C22          3.3040     0.0030     6.1490 c3         1 B3N       0.210100
      9 C21          5.5020     0.0020     4.8800 c3         1 B3N       0.210100
     10 C18          4.0380     0.0000     2.4710 ca         1 B3N      -0.208000
     11 C19          3.3520    -0.0060     1.2780 ca         1 B3N      -0.005500
     12 N12          1.8890    -0.0060    -1.1680 ns         1 B3N      -0.209900
     13 C10          1.1560    -0.0130    -2.4360 c3         1 B3N       0.052000
     14 C9           2.1490    -0.0190    -3.6000 c3         1 B3N      -0.043400
     15 C8           1.3840    -0.0260    -4.9240 c3         1 B3N      -0.020400
     16 C7           2.3780    -0.0330    -6.0880 c3         1 B3N      -0.032400
     17 C6           1.6120    -0.0400    -7.4120 c3         1 B3N      -0.014400
     18 C5           2.6070    -0.0450    -8.5760 c3         1 B3N      -0.091400
     19 C1           1.8520    -0.0520    -9.8800 c          1 B3N       0.568100
     20 O2           0.6390    -0.0520    -9.8790 o          1 B3N      -0.614100
     21 N3           2.5250    -0.0580   -11.0480 ns         1 B3N      -0.063400
     22 O4           1.8170    -0.0650   -12.2740 oh         1 B3N      -0.437100
     23 H15          0.1730     0.0010     2.4910 ha         1 B3N       0.108500
     24 H16          1.4090     0.0020     4.6180 ha         1 B3N       0.117500
     25 H221         2.6810     0.8880     6.2060 h1         1 B3N       0.006200
     26 H222         4.0080     0.0040     6.9720 h1         1 B3N       0.006200
     27 H223         2.6810    -0.8810     6.2070 h1         1 B3N       0.006200
     28 H211         5.8640     0.8850     4.3680 h1         1 B3N       0.006200
     29 H212         5.8630    -0.8840     4.3710 h1         1 B3N       0.006200
     30 H213         5.8630     0.0030     5.9010 h1         1 B3N       0.006200
     31 H18          5.1210    -0.0020     2.4730 ha         1 B3N       0.117500
     32 H19          3.8950    -0.0070     0.3400 ha         1 B3N       0.108500
     33 H12          2.8900    -0.0040    -1.1680 hn         1 B3N       0.177500
     34 H101         0.5330     0.8710    -2.4980 h1         1 B3N       0.027700
     35 H102         0.5340    -0.8980    -2.4880 h1         1 B3N       0.027700
     36 H91          2.7720    -0.9040    -3.5380 hc         1 B3N       0.014700
     37 H92          2.7720     0.8650    -3.5470 hc         1 B3N       0.014700
     38 H81          0.7610    -0.9110    -4.9760 hc         1 B3N       0.021700
     39 H82          0.7610     0.8580    -4.9860 hc         1 B3N       0.021700
     40 H71          3.0010     0.8520    -6.0350 hc         1 B3N       0.010700
     41 H72          3.0010    -0.9170    -6.0260 hc         1 B3N       0.010700
     42 H61          0.9900    -0.9250    -7.4650 hc         1 B3N       0.032700
     43 H62          0.9890     0.8440    -7.4740 hc         1 B3N       0.032700
     44 H51          3.2300    -0.9290    -8.5140 hc         1 B3N       0.024700
     45 H52          3.2290     0.8400    -8.5230 hc         1 B3N       0.024700
     46 H24          3.5260    -0.0580   -11.0490 hn         1 B3N       0.153500
     47 H25          2.4290    -0.0690   -12.9910 ho         1 B3N       0.391000
@<TRIPOS>BOND
     1     1     2 2   
     2     2     3 1   
     3     2    12 1   
     4     3     4 ar  
     5     3    11 ar  
     6     4     5 ar  
     7     4    23 1   
     8     5     6 ar  
     9     5    24 1   
    10     6     7 1   
    11     6    10 ar  
    12     7     8 1   
    13     7     9 1   
    14     8    25 1   
    15     8    26 1   
    16     8    27 1   
    17     9    28 1   
    18     9    29 1   
    19     9    30 1   
    20    10    11 ar  
    21    10    31 1   
    22    11    32 1   
    23    12    13 1   
    24    12    33 1   
    25    13    14 1   
    26    13    34 1   
    27    13    35 1   
    28    14    15 1   
    29    14    36 1   
    30    14    37 1   
    31    15    16 1   
    32    15    38 1   
    33    15    39 1   
    34    16    17 1   
    35    16    40 1   
    36    16    41 1   
    37    17    18 1   
    38    17    42 1   
    39    17    43 1   
    40    18    19 1   
    41    18    44 1   
    42    18    45 1   
    43    19    20 2   
    44    19    21 1   
    45    21    22 1   
    46    21    46 1   
    47    22    47 1   
@<TRIPOS>SUBSTRUCTURE
     1 B3N         1 TEMP              0 ****  ****    0 ROOT
