@<TRIPOS>MOLECULE
molecule
   45    44     1     0     0
SMALL
bcc


@<TRIPOS>ATOM
      1 C1           0.0000     0.0000     0.0000 c3         1 B3P      -0.078400
      2 C2           1.5290     0.0000     0.0000 c3         1 B3P       0.133800
      3 C3          -0.5100     0.0000     1.4420 c3         1 B3P       0.133800
      4 N1          -1.9790    -0.0000     1.4420 n7         1 B3P      -0.750700
      5 C4          -2.4020     0.0010     2.8480 c3         1 B3P       0.173200
      6 C5          -3.9300    -0.0010     2.9220 c3         1 B3P       0.138567
      7 C6          -1.8570    -1.2470     3.5450 c3         1 B3P       0.138567
      8 C7          -1.8590     1.2510     3.5430 c3         1 B3P       0.138567
      9 N2           2.0190    -0.0000    -1.3840 n7         1 B3P      -0.750700
     10 C8           3.4860     0.0010    -1.3140 c3         1 B3P       0.173200
     11 C9           4.0660    -0.0010    -2.7290 c3         1 B3P       0.138567
     12 C10          3.9620    -1.2470    -0.5680 c3         1 B3P       0.138567
     13 C11          3.9610     1.2510    -0.5700 c3         1 B3P       0.138567
     14 O1           3.6240    -1.1670    -3.4240 oh         1 B3P      -0.577967
     15 O2           3.5180    -2.4150    -1.2630 oh         1 B3P      -0.577967
     16 O3           3.5170     2.4160    -1.2650 oh         1 B3P      -0.577967
     17 O4          -4.4370    -1.1670     2.2740 oh         1 B3P      -0.577967
     18 O5          -2.3640    -2.4150     2.8950 oh         1 B3P      -0.577967
     19 O6          -2.3660     2.4160     2.8930 oh         1 B3P      -0.577967
     20 H11         -0.3610    -0.8840    -0.5110 hc         1 B3P       0.061200
     21 H12         -0.3610     0.8840    -0.5110 hc         1 B3P       0.061200
     22 H21          1.8900     0.8850     0.5110 h1         1 B3P       0.029200
     23 H22          1.8900    -0.8840     0.5110 h1         1 B3P       0.029200
     24 H31         -0.1490    -0.8840     1.9530 h1         1 B3P       0.029200
     25 H32         -0.1500     0.8850     1.9520 h1         1 B3P       0.029200
     26 HN1         -2.3130     0.8290     0.9920 hn         1 B3P       0.365800
     27 H51         -4.2410    -0.0000     3.9600 h1         1 B3P       0.022117
     28 H52         -4.3160     0.8830     2.4290 h1         1 B3P       0.022117
     29 H61         -2.1700    -1.2470     4.5820 h1         1 B3P       0.022117
     30 H62         -0.7750    -1.2470     3.4940 h1         1 B3P       0.022117
     31 H71         -2.1710     1.2510     4.5810 h1         1 B3P       0.022117
     32 H72         -0.7770     1.2510     3.4920 h1         1 B3P       0.022117
     33 HN2          1.7070     0.8290    -1.8490 hn         1 B3P       0.365800
     34 H91          3.7300     0.8830    -3.2580 h1         1 B3P       0.022117
     35 H92          5.1480    -0.0000    -2.6760 h1         1 B3P       0.022117
     36 H101         3.5530    -1.2470     0.4350 h1         1 B3P       0.022117
     37 H102         5.0440    -1.2470    -0.5160 h1         1 B3P       0.022117
     38 H111         3.5510     1.2510     0.4330 h1         1 B3P       0.022117
     39 H112         5.0430     1.2510    -0.5180 h1         1 B3P       0.022117
     40 HO1          3.8690    -1.1040    -4.3320 ho         1 B3P       0.394500
     41 HO2          3.8600    -3.1830    -0.8360 ho         1 B3P       0.394500
     42 HO3          3.9430     3.1770    -0.9080 ho         1 B3P       0.394500
     43 HO4         -5.3750    -1.1040     2.2020 ho         1 B3P       0.394500
     44 HO5         -2.0760    -3.1830     3.3600 ho         1 B3P       0.394500
     45 HO6         -2.1710     3.1770     3.4140 ho         1 B3P       0.394500
@<TRIPOS>BOND
     1     1     2 1
     2     1     3 1
     3     1    20 1
     4     1    21 1
     5     2     9 1
     6     2    22 1
     7     2    23 1
     8     3     4 1
     9     3    24 1
    10     3    25 1
    11     4     5 1
    12     4    26 1
    13     5     6 1
    14     5     7 1
    15     5     8 1
    16     6    17 1
    17     6    27 1
    18     6    28 1
    19     7    18 1
    20     7    29 1
    21     7    30 1
    22     8    19 1
    23     8    31 1
    24     8    32 1
    25     9    10 1
    26     9    33 1
    27    10    11 1
    28    10    12 1
    29    10    13 1
    30    11    14 1
    31    11    34 1
    32    11    35 1
    33    12    15 1
    34    12    36 1
    35    12    37 1
    36    13    16 1
    37    13    38 1
    38    13    39 1
    39    14    40 1
    40    15    41 1
    41    16    42 1
    42    17    43 1
    43    18    44 1
    44    19    45 1
@<TRIPOS>SUBSTRUCTURE
     1 B3P         1 TEMP              0 ****  ****    0 ROOT
