@<TRIPOS>MOLECULE
B3R
   13    13     1     0     0
SMALL
bcc


@<TRIPOS>ATOM
      1 C1         -0.0650   -0.1170    0.0460 ca        1 B3R      0.126100
      2 C2          1.3350   -0.1670    0.0030 ca        1 B3R     -0.191000
      3 C3          2.0520   -0.0970    1.2000 ca        1 B3R      0.012100
      4 C4         -0.7500    0.0010    1.2670 ca        1 B3R     -0.144000
      5 C5         -0.0140    0.0690    2.4440 ca        1 B3R     -0.097000
      6 C6          1.3820    0.0200    2.4190 ca        1 B3R     -0.139000
      7 O7         -0.8410   -0.1800   -1.0880 oh        1 B3R     -0.494100
      8 BR8         3.9250   -0.1630    1.1600 br        1 B3R     -0.086100
      9 H2          1.8540   -0.2600   -0.9620 ha        1 B3R      0.148000
     10 H4         -1.8490    0.0380    1.2720 ha        1 B3R      0.155000
     11 H5         -0.5360    0.1620    3.4090 ha        1 B3R      0.141000
     12 H6          1.9440    0.0750    3.3640 ha        1 B3R      0.149000
     13 HO7        -0.2510   -0.2590   -1.8520 ho        1 B3R      0.422000
@<TRIPOS>BOND
     1    1    2 ar  
     2    1    4 ar  
     3    1    7 1   
     4    2    3 ar  
     5    2    9 1   
     6    3    6 ar  
     7    3    8 1   
     8    4    5 ar  
     9    4   10 1   
    10    5    6 ar  
    11    5   11 1   
    12    6   12 1   
    13    7   13 1   
@<TRIPOS>SUBSTRUCTURE
     1 B3R         1 TEMP              0 ****  ****    0 ROOT
