@<TRIPOS>MOLECULE
molecule
   13    13     1     0     0
SMALL
bcc


@<TRIPOS>ATOM
      1 C1           0.0000     0.0000     0.0000 ca         1 B3R       0.107100
      2 C2           1.3870     0.0000     0.0000 ca         1 B3R      -0.131000
      3 C3           2.0770     0.0000     1.1980 ca         1 B3R      -0.005900
      4 C4          -0.6920    -0.0010     1.2030 ca         1 B3R      -0.140000
      5 C5           0.0030    -0.0010     2.3980 ca         1 B3R      -0.114000
      6 C6           1.3850     0.0000     2.3950 ca         1 B3R      -0.112000
      7 O7          -0.6810     0.0060    -1.1760 oh         1 B3R      -0.518100
      8 Br8          3.9680     0.0010     1.1980 br         1 B3R      -0.091100
      9 H2           1.9290     0.0000    -0.9380 ha         1 B3R       0.154000
     10 H4          -1.7750    -0.0010     1.2050 ha         1 B3R       0.145000
     11 H5          -0.5360    -0.0010     3.3380 ha         1 B3R       0.140000
     12 H6           1.9280     0.0000     3.3330 ha         1 B3R       0.145000
     13 HO7         -0.8020    -0.8810    -1.4740 ho         1 B3R       0.422000
@<TRIPOS>BOND
     1     7     1 1
     2     1     4 ar
     3     1     2 ar
     4     2     3 ar
     5     2     9 1
     6     3     6 ar
     7     3     8 1
     8     4     5 ar
     9     4    10 1
    10     5     6 ar
    11     5    11 1
    12     6    12 1
    13     7    13 1
@<TRIPOS>SUBSTRUCTURE
     1 B3R         1 TEMP              0 ****  ****    0 ROOT
