@<TRIPOS>MOLECULE
B3V
   41    41     1     0     0
SMALL
bcc


@<TRIPOS>ATOM
      1 N1           0.0000     0.0000     0.0000 n7         1 B3V      -0.585100
      2 O1           2.0570     0.9990    -0.9280 o          1 B3V      -0.585800
      3 S1           1.6570     0.0000     0.0000 sy         1 B3V       1.043200
      4 C2           3.4190    -4.2880    -4.3750 c3         1 B3V       0.245700
      5 N2          -2.9270    -1.4690     1.7940 n3         1 B3V      -0.536600
      6 O2           2.0580     0.0000     1.3630 o          1 B3V      -0.585800
      7 C5           3.0000    -3.9680    -1.7230 ca         1 B3V      -0.160000
      8 C6           2.7940    -2.8830    -2.5620 ca         1 B3V       0.121100
      9 C7           2.3830    -1.6670    -2.0330 ca         1 B3V      -0.033000
     10 C11         -2.1930    -0.5150     0.9510 c3         1 B3V       0.137800
     11 C8           2.1790    -1.5420    -0.6720 ca         1 B3V      -0.121500
     12 C9           2.3850    -2.6260     0.1610 ca         1 B3V      -0.044000
     13 C10          2.7940    -3.8370    -0.3640 ca         1 B3V      -0.087000
     14 C13         -0.7320    -0.9520     0.8400 c3         1 B3V       0.214800
     15 C16         -4.1550     0.1250     3.1880 c3         1 B3V       0.000400
     16 C17         -4.2680    -0.9620     2.1180 c3         1 B3V       0.142300
     17 C19         -3.0050    -2.7880     1.1500 c3         1 B3V       0.142300
     18 C20         -3.4060    -3.8390     2.1870 c3         1 B3V       0.000400
     19 H1          -0.5000     0.6750    -0.5430 hn         1 B3V       0.349800
     20 H131        -0.2870    -0.9780     1.8280 h1         1 B3V       0.024200
     21 H132        -0.6820    -1.9380     0.3950 h1         1 B3V       0.024200
     22 H21C         3.5440    -4.2510    -5.4500 h1         1 B3V      -0.001967
     23 H22C         4.3660    -4.5330    -3.9100 h1         1 B3V      -0.001967
     24 H23C         2.6860    -5.0450    -4.1220 h1         1 B3V      -0.001967
     25 H111        -2.2420     0.4720     1.3950 h1         1 B3V       0.014700
     26 H112        -2.6380    -0.4890    -0.0370 h1         1 B3V       0.014700
     27 H171        -4.7220    -0.5470     1.2270 h1         1 B3V       0.010200
     28 H172        -4.8800    -1.7740     2.4910 h1         1 B3V       0.010200
     29 H191        -3.7450    -2.7600     0.3590 h1         1 B3V       0.010200
     30 H192        -2.0390    -3.0430     0.7320 h1         1 B3V       0.010200
     31 H5           3.3210    -4.9180    -2.1340 ha         1 B3V       0.120000
     32 H10          2.9550    -4.6840     0.2920 ha         1 B3V       0.107000
     33 H7           2.2210    -0.8190    -2.6870 ha         1 B3V       0.135000
     34 H9           2.2250    -2.5250     1.2280 ha         1 B3V       0.127000
     35 H161        -3.2950    -0.0730     3.8160 hc         1 B3V       0.007367
     36 H162        -4.0380     1.0910     2.7110 hc         1 B3V       0.007367
     37 H163        -5.0520     0.1290     3.7950 hc         1 B3V       0.007367
     38 H201        -4.4860    -3.9190     2.2220 hc         1 B3V       0.007367
     39 H202        -2.9810    -4.7970     1.9130 hc         1 B3V       0.007367
     40 H203        -3.0340    -3.5450     3.1620 hc         1 B3V       0.007367
     41 O06          2.9950    -3.0090    -3.9010 os         1 B3V      -0.304900
@<TRIPOS>BOND
     1     1     3 1   
     2     1    14 1   
     3     1    19 1   
     4     2     3 2   
     5     3     6 2   
     6     3    11 1   
     7     4    22 1   
     8     4    23 1   
     9     4    24 1   
    10     4    41 1   
    11     5    10 1   
    12     5    16 1   
    13     5    17 1   
    14     7     8 ar  
    15     7    13 ar  
    16     7    31 1   
    17     8     9 ar  
    18     8    41 1   
    19     9    11 ar  
    20     9    33 1   
    21    10    14 1   
    22    10    25 1   
    23    10    26 1   
    24    11    12 ar  
    25    12    13 ar  
    26    12    34 1   
    27    13    32 1   
    28    14    20 1   
    29    14    21 1   
    30    15    16 1   
    31    15    35 1   
    32    15    36 1   
    33    15    37 1   
    34    16    27 1   
    35    16    28 1   
    36    17    18 1   
    37    17    29 1   
    38    17    30 1   
    39    18    38 1   
    40    18    39 1   
    41    18    40 1   
@<TRIPOS>SUBSTRUCTURE
     1 B3V         1 TEMP              0 ****  ****    0 ROOT
