@<TRIPOS>MOLECULE
B3W
   37    37     1     0     0
SMALL
bcc


@<TRIPOS>ATOM
      1 O2           0.0000     0.0000     0.0000 o          1 B3W      -0.585300
      2 S1           1.4210     0.0000     0.0000 sy         1 B3W       1.044200
      3 O1           2.1980     0.0000     1.1900 o          1 B3W      -0.585300
      4 N4           1.8880    -1.3330    -0.8640 n7         1 B3W      -0.584100
      5 C22          3.3120    -1.6050    -1.0780 c3         1 B3W       0.214800
      6 C21          3.4890    -3.0470    -1.5590 c3         1 B3W       0.137800
      7 N17          4.9170    -3.3180    -1.7740 n3         1 B3W      -0.536600
      8 C16          5.1510    -4.7500    -2.0060 c3         1 B3W       0.142300
      9 C20          5.0540    -5.5050    -0.6790 c3         1 B3W       0.000400
     10 C5           1.9190     1.4180    -0.9190 ca         1 B3W      -0.163500
     11 C10          3.1690     1.9710    -0.7140 ca         1 B3W       0.016000
     12 C9           3.5600     3.0830    -1.4340 ca         1 B3W      -0.132500
     13 C8           2.7000     3.6440    -2.3630 ca         1 B3W       0.011400
     14 C7           1.4490     3.0900    -2.5670 ca         1 B3W      -0.132500
     15 C6           1.0610     1.9740    -1.8500 ca         1 B3W       0.016000
     16 C11          5.4460    -2.5120    -2.8820 c3         1 B3W       0.142300
     17 C12          6.9750    -2.5110    -2.8270 c3         1 B3W       0.000400
     18 Cl8          3.1900     5.0420    -3.2670 cl         1 B3W      -0.014400
     19 H4           1.1990    -1.9650    -1.2200 hn         1 B3W       0.349800
     20 H221         3.7010    -0.9240    -1.8250 h1         1 B3W       0.024200
     21 H222         3.8500    -1.4660    -0.1480 h1         1 B3W       0.024200
     22 H211         2.9510    -3.1860    -2.4890 h1         1 B3W       0.015200
     23 H212         3.1000    -3.7280    -0.8120 h1         1 B3W       0.015200
     24 H161         4.4050    -5.1310    -2.6930 h1         1 B3W       0.010450
     25 H162         6.1370    -4.8910    -2.4300 h1         1 B3W       0.010450
     26 H111         5.1190    -2.9350    -3.8250 h1         1 B3W       0.010450
     27 H112         5.0810    -1.4960    -2.7960 h1         1 B3W       0.010450
     28 H201         5.3640    -4.8540     0.1300 hc         1 B3W       0.007367
     29 H202         5.6990    -6.3750    -0.7100 hc         1 B3W       0.007367
     30 H203         4.0300    -5.8210    -0.5160 hc         1 B3W       0.007367
     31 H6           0.0810     1.5410    -2.0110 ha         1 B3W       0.126500
     32 H10          3.8420     1.5320     0.0130 ha         1 B3W       0.126500
     33 H7           0.7760     3.5270    -3.2950 ha         1 B3W       0.120500
     34 H9           4.5400     3.5160    -1.2730 ha         1 B3W       0.120500
     35 H121         7.3580    -3.3450    -3.4020 hc         1 B3W       0.007367
     36 H122         7.3000    -2.6030    -1.7980 hc         1 B3W       0.007367
     37 H123         7.3510    -1.5840    -3.2430 hc         1 B3W       0.007367
@<TRIPOS>BOND
     1     1     2 2   
     2     2     3 2   
     3     2     4 1   
     4     2    10 1   
     5     4     5 1   
     6     4    19 1   
     7     5     6 1   
     8     5    20 1   
     9     5    21 1   
    10     6     7 1   
    11     6    22 1   
    12     6    23 1   
    13     7     8 1   
    14     7    16 1   
    15     8     9 1   
    16     8    24 1   
    17     8    25 1   
    18     9    28 1   
    19     9    29 1   
    20     9    30 1   
    21    10    11 ar  
    22    10    15 ar  
    23    11    12 ar  
    24    11    32 1   
    25    12    13 ar  
    26    12    34 1   
    27    13    14 ar  
    28    13    18 1   
    29    14    15 ar  
    30    14    33 1   
    31    15    31 1   
    32    16    17 1   
    33    16    26 1   
    34    16    27 1   
    35    17    35 1   
    36    17    36 1   
    37    17    37 1   
@<TRIPOS>SUBSTRUCTURE
     1 B3W         1 TEMP              0 ****  ****    0 ROOT
