@<TRIPOS>MOLECULE
molecule
   37    37     1     0     0
SMALL
bcc


@<TRIPOS>ATOM
      1 O1           0.0000     0.0000     0.0000 o          1 B3Z      -0.630300
      2 S1           1.4210     0.0000     0.0000 sy         1 B3Z       1.428200
      3 O2           2.1970     0.0000     1.1910 o          1 B3Z      -0.630300
      4 N4           1.8890    -1.3340    -0.8630 n7         1 B3Z      -0.915100
      5 C22          3.3130    -1.6050    -1.0780 c3         1 B3Z       0.227800
      6 C21          3.4900    -3.0460    -1.5580 c3         1 B3Z       0.152800
      7 N17          4.9170    -3.3200    -1.7730 n3         1 B3Z      -0.730600
      8 C16          5.6570    -3.2810    -0.5040 c3         1 B3Z       0.155300
      9 C20          7.1550    -3.1690    -0.7910 c3         1 B3Z      -0.093100
     10 C5           1.9190     1.4180    -0.9190 ca         1 B3Z      -0.350500
     11 C6           0.9670     2.2750    -1.4390 ca         1 B3Z      -0.003000
     12 C7           1.3580     3.3880    -2.1600 ca         1 B3Z      -0.165000
     13 C8           2.7010     3.6450    -2.3620 ca         1 B3Z      -0.052000
     14 C9           3.6540     2.7900    -1.8440 ca         1 B3Z      -0.185000
     15 C10          3.2650     1.6770    -1.1170 ca         1 B3Z       0.222900
     16 C11          5.1110    -4.6050    -2.4560 c3         1 B3Z       0.155300
     17 F09          4.1960     0.8440    -0.6040 f          1 B3Z      -0.126900
     18 C12          4.7650    -4.4510    -3.9390 c3         1 B3Z      -0.093100
     19 H4           1.1990    -1.9560    -1.2360 hn         1 B3Z       0.454800
     20 H221         3.8510    -1.4660    -0.1480 h1         1 B3Z       0.060700
     21 H222         3.7010    -0.9250    -1.8260 h1         1 B3Z       0.060700
     22 H211         2.9520    -3.1850    -2.4880 h1         1 B3Z       0.039200
     23 H212         3.1010    -3.7270    -0.8110 h1         1 B3Z       0.039200
     24 H161         5.4620    -4.1880     0.0550 h1         1 B3Z       0.036950
     25 H162         5.3350    -2.4230     0.0750 h1         1 B3Z       0.036950
     26 H111         4.4650    -5.3520    -2.0110 h1         1 B3Z       0.036950
     27 H112         6.1440    -4.9150    -2.3570 h1         1 B3Z       0.036950
     28 H201         7.6360    -2.6160     0.0070 hc         1 B3Z       0.039367
     29 H202         7.3060    -2.6520    -1.7310 hc         1 B3Z       0.039367
     30 H203         7.5860    -4.1620    -0.8530 hc         1 B3Z       0.039367
     31 H6          -0.0860     2.0740    -1.2800 ha         1 B3Z       0.163000
     32 H7           0.6100     4.0590    -2.5660 ha         1 B3Z       0.142000
     33 H8           3.0060     4.5160    -2.9300 ha         1 B3Z       0.140000
     34 H9           4.7070     2.9920    -2.0010 ha         1 B3Z       0.151000
     35 H121         4.9730    -3.4360    -4.2550 hc         1 B3Z       0.039367
     36 H122         3.7140    -4.6670    -4.0890 hc         1 B3Z       0.039367
     37 H123         5.3620    -5.1410    -4.5220 hc         1 B3Z       0.039367
@<TRIPOS>BOND
     1     1     2 2
     2     2     3 2
     3     2     4 1
     4     2    10 1
     5     4     5 1
     6     5     6 1
     7     6     7 1
     8     7     8 1
     9     7    16 1
    10     8     9 1
    11    10    11 ar
    12    10    15 ar
    13    11    12 ar
    14    12    13 ar
    15    13    14 ar
    16    14    15 ar
    17    15    17 1
    18    16    18 1
    19     4    19 1
    20     5    20 1
    21     5    21 1
    22     6    22 1
    23     6    23 1
    24     8    24 1
    25     8    25 1
    26    16    26 1
    27    16    27 1
    28     9    28 1
    29     9    29 1
    30     9    30 1
    31    11    31 1
    32    12    32 1
    33    13    33 1
    34    14    34 1
    35    18    35 1
    36    18    36 1
    37    18    37 1
@<TRIPOS>SUBSTRUCTURE
     1 B3Z         1 TEMP              0 ****  ****    0 ROOT
