@<TRIPOS>MOLECULE
B40
   26    26     1     0     0
SMALL
bcc


@<TRIPOS>ATOM
      1 N            0.0000     0.0000     0.0000 n7         1 B40      -0.583200
      2 CA           1.4680     0.0000     0.0000 c3         1 B40       0.113500
      3 C            1.9780     0.0000     1.4420 c3         1 B40      -0.031100
      4 CB           1.9790    -1.2490    -0.7210 c3         1 B40       0.036900
      5 CG           1.5800    -1.1880    -2.1740 ca         1 B40      -0.079300
      6 CD1          2.4210    -0.5940    -3.0970 ca         1 B40      -0.091000
      7 CD2          0.3780    -1.7310    -2.5830 ca         1 B40      -0.091000
      8 CE1          2.0560    -0.5380    -4.4290 ca         1 B40      -0.103000
      9 CE2          0.0120    -1.6760    -3.9160 ca         1 B40      -0.103000
     10 CZ           0.8490    -1.0770    -4.8370 ca         1 B40      -0.107000
     11 CM          -0.5270     1.3660     0.1190 c3         1 B40       0.176100
     12 HN          -0.3340    -0.5540     0.7630 hn         1 B40       0.253800
     13 HA           1.8290     0.8850    -0.5100 h1         1 B40       0.039700
     14 H            3.0520    -0.1420     1.4450 hc         1 B40       0.008367
     15 HB           1.7380     0.9470     1.9100 hc         1 B40       0.008367
     16 HC           1.5060    -0.8050     1.9920 hc         1 B40       0.008367
     17 HBA          1.5470    -2.1310    -0.2650 hc         1 B40       0.019200
     18 HBB          3.0590    -1.2940    -0.6450 hc         1 B40       0.019200
     19 HD1          3.3650    -0.1720    -2.7760 ha         1 B40       0.105000
     20 HD2         -0.2780    -2.2010    -1.8600 ha         1 B40       0.105000
     21 HE1          2.7130    -0.0700    -5.1520 ha         1 B40       0.100000
     22 HE2         -0.9320    -2.1010    -4.2360 ha         1 B40       0.100000
     23 HZ           0.5620    -1.0330    -5.8810 ha         1 B40       0.099000
     24 HM          -1.5610     1.3830    -0.2030 h1         1 B40      -0.001300
     25 HMA          0.0560     2.0340    -0.5030 h1         1 B40      -0.001300
     26 HMB         -0.4660     1.6870     1.1520 h1         1 B40      -0.001300
@<TRIPOS>BOND
     1     1     2 1   
     2     1    11 1   
     3     1    12 1   
     4     2     3 1   
     5     2     4 1   
     6     2    13 1   
     7     3    14 1   
     8     3    15 1   
     9     3    16 1   
    10     4     5 1   
    11     4    17 1   
    12     4    18 1   
    13     5     6 ar  
    14     5     7 ar  
    15     6     8 ar  
    16     6    19 1   
    17     7     9 ar  
    18     7    20 1   
    19     8    10 ar  
    20     8    21 1   
    21     9    10 ar  
    22     9    22 1   
    23    10    23 1   
    24    11    24 1   
    25    11    25 1   
    26    11    26 1   
@<TRIPOS>SUBSTRUCTURE
     1 B40         1 TEMP              0 ****  ****    0 ROOT
