@<TRIPOS>MOLECULE
molecule
   29    30     1     0     0
SMALL
bcc


@<TRIPOS>ATOM
      1 O1           0.0000     0.0000     0.0000 os         1 B41      -0.325900
      2 O2           0.7240     0.0010     2.1460 os         1 B41      -0.327900
      3 N            3.7710    -2.1000    -2.8130 n7         1 B41      -0.813200
      4 CA           4.9710    -1.4450    -2.2730 c3         1 B41       0.162500
      5 C            6.0740    -1.4490    -3.3330 c3         1 B41      -0.129100
      6 CB           4.6360    -0.0020    -1.8910 c3         1 B41      -0.020100
      7 CG           3.6390    -0.0010    -0.7620 ca         1 B41      -0.067300
      8 CD1          2.2830    -0.0010    -1.0370 ca         1 B41      -0.083000
      9 CD2          4.0810    -0.0020     0.5490 ca         1 B41      -0.130000
     10 CE1          1.3650     0.0000     0.0000 ca         1 B41       0.045100
     11 CE2          3.1690    -0.0010     1.5890 ca         1 B41      -0.115000
     12 CZ           1.8100     0.0000     1.3200 ca         1 B41       0.043100
     13 CT          -0.3840     0.4120     1.3250 c3         1 B41       0.331200
     14 HN           3.6820    -1.8830    -3.7860 hn         1 B41       0.351800
     15 HA           5.3110    -1.9820    -1.3960 h1         1 B41       0.064700
     16 H            6.4120    -2.4650    -3.4990 hc         1 B41       0.038700
     17 HB           6.9050    -0.8440    -2.9910 hc         1 B41       0.038700
     18 HC           5.6870    -1.0410    -4.2590 hc         1 B41       0.038700
     19 HBA          4.2130     0.5090    -2.7470 hc         1 B41       0.050200
     20 HBB          5.5380     0.5070    -1.5760 hc         1 B41       0.050200
     21 HD1          1.9400     0.0410    -2.0640 ha         1 B41       0.148000
     22 HD2          5.1430     0.0090     0.7610 ha         1 B41       0.135000
     23 HE2          3.5180    -0.0020     2.6140 ha         1 B41       0.140000
     24 HM           4.2380    -3.7850    -1.6580 h1         1 B41       0.031033
     25 HMA          4.4980    -3.9770    -3.3970 h1         1 B41       0.031033
     26 HMB          2.8550    -3.9830    -2.7430 h1         1 B41       0.031033
     27 HT          -1.2920    -0.0940     1.6310 h2         1 B41       0.066700
     28 HTA         -0.5070     1.4880     1.3660 h2         1 B41       0.066700
     29 CM           3.8450    -3.5570    -2.6420 c3         1 B41       0.147100
@<TRIPOS>BOND
     1     1    13 1
     2     1    10 1
     3    13     2 1
     4     2    12 1
     5    29     3 1
     6     3     4 1
     7     3    14 1
     8     5     4 1
     9     4     6 1
    10     4    15 1
    11     5    16 1
    12     5    17 1
    13     5    18 1
    14     6     7 1
    15     6    19 1
    16     6    20 1
    17     8     7 ar
    18     7     9 ar
    19     8    10 ar
    20     8    21 1
    21     9    11 ar
    22     9    22 1
    23    10    12 ar
    24    12    11 ar
    25    11    23 1
    26    29    24 1
    27    29    25 1
    28    29    26 1
    29    13    27 1
    30    13    28 1
@<TRIPOS>SUBSTRUCTURE
     1 B41         1 TEMP              0 ****  ****    0 ROOT
