@<TRIPOS>MOLECULE
molecule
   70    73     1     0     0
SMALL
bcc


@<TRIPOS>ATOM
      1 O33          0.0000     0.0000     0.0000 o          1 B42      -0.627300
      2 S36          1.4210     0.0000     0.0000 s6         1 B42       1.326900
      3 O32          2.1530     0.0000     1.2180 o          1 B42      -0.627300
      4 C21          2.0580    -1.2730    -1.1240 c3         1 B42      -0.243300
      5 N28          1.8300     1.4320    -0.7220 nu         1 B42      -0.769500
      6 C5           1.2660     1.7820    -1.9540 ca         1 B42       0.093600
      7 C2          -0.0960     1.6140    -2.1680 ca         1 B42      -0.088000
      8 C3           2.0660     2.3010    -2.9650 ca         1 B42      -0.009000
      9 C6           1.5050     2.6430    -4.1740 ca         1 B42      -0.324500
     10 S35          2.4960     3.3020    -5.4760 sy         1 B42       1.420700
     11 O30          2.6710     4.6820    -5.1930 o          1 B42      -0.614800
     12 O31          3.5780     2.3990    -5.6570 o          1 B42      -0.614800
     13 N26          1.5680     3.2090    -6.8480 ne         1 B42      -0.737300
     14 C9           0.2930     2.9920    -6.7740 cf         1 B42       0.834500
     15 N25         -0.4190     2.8290    -5.6220 nu         1 B42      -0.728600
     16 C4           0.1420     2.4740    -4.3940 ca         1 B42       0.201600
     17 C1          -0.6570     1.9590    -3.3810 ca         1 B42      -0.166000
     18 C7          -0.4530     2.9140    -8.0450 cf         1 B42      -0.322800
     19 C10         -1.4580     3.9340    -8.3790 c          1 B42       0.718700
     20 O29         -1.5110     4.9710    -7.7460 o          1 B42      -0.624500
     21 N27         -2.3200     3.7150    -9.3900 n          1 B42      -0.482800
     22 C16         -3.2220     4.7850    -9.8190 c3         1 B42       0.111700
     23 C14         -4.6780     4.2860    -9.8050 c3         1 B42      -0.100900
     24 C12         -5.1980     4.4030   -11.2520 c3         1 B42      -0.089400
     25 C13         -2.9080     5.1900   -11.2740 c3         1 B42      -0.100900
     26 C11         -3.9160     4.3710   -12.1200 c3         1 B42      -0.089400
     27 C15         -2.3640     2.4160   -10.0630 c3         1 B42       0.107000
     28 C17         -0.9540     1.8560   -10.2340 c3         1 B42      -0.072800
     29 C18         -1.0390     0.4080   -10.7210 c3         1 B42      -0.090100
     30 C8          -0.2130     1.9020    -8.9240 c2         1 B42       0.196900
     31 O34          0.6770     0.9420    -8.6180 oh         1 B42      -0.499100
     32 C22         -0.1970     2.6930   -11.2680 c3         1 B42      -0.066400
     33 C23          1.2170     2.1330   -11.4410 c3         1 B42      -0.083400
     34 C24          1.9720     2.9700   -12.4750 c3         1 B42      -0.075700
     35 C20          3.4230     2.4890   -12.5570 c3         1 B42      -0.089100
     36 C19          1.3060     2.8140   -13.8440 c3         1 B42      -0.089100
     37 H21          2.1810    -2.2040    -0.5830 h1         1 B42       0.102033
     38 H21A         3.0140    -0.9580    -1.5230 h1         1 B42       0.102033
     39 H21B         1.3580    -1.4190    -1.9380 h1         1 B42       0.102033
     40 HN28         2.4540     2.0650    -0.2610 hn         1 B42       0.470800
     41 H2          -0.7230     1.2230    -1.3750 ha         1 B42       0.193000
     42 H3           3.1090     2.5220    -2.7710 ha         1 B42       0.153000
     43 HN25        -1.4040     2.6830    -5.7210 hn         1 B42       0.455800
     44 H1          -1.7200     1.8270    -3.5440 ha         1 B42       0.142000
     45 H16         -3.1220     5.6450    -9.1670 h1         1 B42       0.100700
     46 H14         -4.7110     3.2520    -9.4830 hc         1 B42       0.055700
     47 H14A        -5.2750     4.9050    -9.1460 hc         1 B42       0.055700
     48 H12         -5.8380     3.5630   -11.4930 hc         1 B42       0.047200
     49 H12A        -5.7230     5.3410   -11.3900 hc         1 B42       0.047200
     50 H13         -3.0720     6.2520   -11.4140 hc         1 B42       0.055700
     51 H13A        -1.8910     4.9190   -11.5300 hc         1 B42       0.055700
     52 H11         -4.0890     4.8500   -13.0770 hc         1 B42       0.047200
     53 H11A        -3.5670     3.3530   -12.2500 hc         1 B42       0.047200
     54 H15         -2.9530     1.7270    -9.4700 h1         1 B42       0.059200
     55 H15A        -2.8210     2.5360   -11.0390 h1         1 B42       0.059200
     56 H18         -1.4050     0.3910   -11.7410 hc         1 B42       0.048033
     57 H18A        -0.0550    -0.0440   -10.6830 hc         1 B42       0.048033
     58 H18B        -1.7170    -0.1480   -10.0850 hc         1 B42       0.048033
     59 HO34         0.2490     0.2620    -8.1240 ho         1 B42       0.433000
     60 H22         -0.1400     3.7200   -10.9300 hc         1 B42       0.056700
     61 H22A        -0.7200     2.6530   -12.2170 hc         1 B42       0.056700
     62 H23          1.7390     2.1720   -10.4930 hc         1 B42       0.055700
     63 H23A         1.1600     1.1050   -11.7800 hc         1 B42       0.055700
     64 H24          1.9530     4.0120   -12.1810 hc         1 B42       0.054700
     65 H20          3.8950     2.6010   -11.5890 hc         1 B42       0.034033
     66 H20A         3.9580     3.0810   -13.2900 hc         1 B42       0.034033
     67 H20B         3.4420     1.4470   -12.8510 hc         1 B42       0.034033
     68 H19          2.0230     3.0400   -14.6230 hc         1 B42       0.034033
     69 H19A         0.9550     1.7950   -13.9610 hc         1 B42       0.034033
     70 H19B         0.4670     3.4950   -13.9170 hc         1 B42       0.034033
@<TRIPOS>BOND
     1     1     2 2
     2     5     2 1
     3     2     4 1
     4     2     3 2
     5     4    37 1
     6     4    38 1
     7     4    39 1
     8     6     5 1
     9     5    40 1
    10     7     6 ar
    11     8     6 ar
    12    17     7 ar
    13     7    41 1
    14     9     8 ar
    15     8    42 1
    16    10     9 1
    17    16     9 ar
    18    13    10 1
    19    10    12 2
    20    10    11 2
    21    14    13 2
    22    18    14 1
    23    14    15 1
    24    15    16 1
    25    15    43 1
    26    16    17 ar
    27    17    44 1
    28    19    18 1
    29    30    18 2
    30    21    19 1
    31    19    20 2
    32    22    21 1
    33    27    21 1
    34    25    22 1
    35    23    22 1
    36    22    45 1
    37    24    23 1
    38    23    46 1
    39    23    47 1
    40    26    24 1
    41    24    48 1
    42    24    49 1
    43    26    25 1
    44    25    50 1
    45    25    51 1
    46    26    52 1
    47    26    53 1
    48    27    28 1
    49    27    54 1
    50    27    55 1
    51    32    28 1
    52    29    28 1
    53    28    30 1
    54    29    56 1
    55    29    57 1
    56    29    58 1
    57    30    31 1
    58    31    59 1
    59    32    33 1
    60    32    60 1
    61    32    61 1
    62    34    33 1
    63    33    62 1
    64    33    63 1
    65    36    34 1
    66    34    35 1
    67    34    64 1
    68    35    65 1
    69    35    66 1
    70    35    67 1
    71    36    68 1
    72    36    69 1
    73    36    70 1
@<TRIPOS>SUBSTRUCTURE
     1 B42         1 TEMP              0 ****  ****    0 ROOT
