@<TRIPOS>MOLECULE
B43
   50    54     1     0     0
SMALL
bcc


@<TRIPOS>ATOM
      1 N1           0.0000     0.0000     0.0000 nv         1 B43      -0.532500
      2 C1           1.3830     0.0000     0.0000 ca         1 B43       0.596200
      3 N4           2.0640     0.0000     1.1430 nb         1 B43      -0.752000
      4 C23          3.3850    -0.0010     1.1470 ca         1 B43       0.694900
      5 N3           4.1000    -0.0010     0.0430 nb         1 B43      -0.698000
      6 C22          3.5060    -0.0010    -1.1520 ca         1 B43       0.310800
      7 C2           2.1020    -0.0060    -1.2030 ca         1 B43      -0.401400
      8 N2           3.9640     0.0000    -2.4420 na         1 B43       0.330900
      9 C17          5.3760    -0.0010    -2.8290 c3         1 B43      -0.077000
     10 C21          5.6770    -1.2180    -3.7270 c3         1 B43      -0.038900
     11 C20          5.5600    -0.6650    -5.1700 c3         1 B43      -0.028400
     12 C19          6.1760     0.7510    -5.0440 c3         1 B43      -0.028400
     13 C18          5.6930     1.2510    -3.6660 c3         1 B43      -0.038900
     14 C16          2.9110     0.0000    -3.3170 cc         1 B43      -0.263100
     15 C3           1.7440    -0.0120    -2.6270 cd         1 B43      -0.062400
     16 C4           0.3760    -0.0140    -3.1980 ca         1 B43      -0.005800
     17 C15          0.0310     0.9070    -4.1870 ca         1 B43      -0.097000
     18 C14         -1.2440     0.9020    -4.7160 ca         1 B43      -0.118000
     19 C7          -2.1810    -0.0180    -4.2650 ca         1 B43       0.101100
     20 C6          -1.8400    -0.9350    -3.2800 ca         1 B43      -0.118000
     21 C5          -0.5660    -0.9390    -2.7510 ca         1 B43      -0.097000
     22 O           -3.4350    -0.0190    -4.7890 os         1 B43      -0.219200
     23 C8          -3.5830    -0.3830    -6.0890 ca         1 B43       0.142100
     24 C13         -2.4960    -0.8660    -6.8030 ca         1 B43      -0.170500
     25 C12         -2.6490    -1.2360    -8.1260 ca         1 B43      -0.061000
     26 C11         -3.8850    -1.1260    -8.7370 ca         1 B43      -0.141000
     27 C10         -4.9690    -0.6460    -8.0270 ca         1 B43      -0.061000
     28 C9          -4.8230    -0.2800    -6.7030 ca         1 B43      -0.170500
     29 HN1         -0.5010     0.0020    -0.8670 hn         1 B43       0.285300
     30 HN1A        -0.5000     0.0000     0.8670 hn         1 B43       0.285300
     31 H23          3.9010    -0.0000     2.0990 h5         1 B43      -0.007900
     32 H17          6.0070    -0.0270    -1.9500 h1         1 B43       0.068700
     33 H21          4.9450    -1.9990    -3.5630 hc         1 B43       0.028450
     34 H21A         6.6800    -1.5840    -3.5430 hc         1 B43       0.028450
     35 H20          4.5220    -0.6050    -5.4740 hc         1 B43       0.019700
     36 H20A         6.1360    -1.2710    -5.8590 hc         1 B43       0.019700
     37 H19          5.8040     1.3950    -5.8310 hc         1 B43       0.019700
     38 H19A         7.2570     0.6960    -5.0680 hc         1 B43       0.019700
     39 H18          6.4760     1.8270    -3.1870 hc         1 B43       0.028450
     40 H18A         4.8010     1.8540    -3.7830 hc         1 B43       0.028450
     41 H16          2.9980     0.0080    -4.3970 h4         1 B43       0.155000
     42 H15          0.7620     1.6240    -4.5390 ha         1 B43       0.116000
     43 H14         -1.5130     1.6160    -5.4850 ha         1 B43       0.119500
     44 H6          -2.5730    -1.6520    -2.9320 ha         1 B43       0.119500
     45 H5          -0.3010    -1.6550    -1.9830 ha         1 B43       0.116000
     46 H13         -1.5270    -0.9520    -6.3250 ha         1 B43       0.121500
     47 H12         -1.8010    -1.6130    -8.6840 ha         1 B43       0.102000
     48 H11         -4.0020    -1.4150    -9.7750 ha         1 B43       0.105000
     49 H10         -5.9370    -0.5630    -8.5080 ha         1 B43       0.102000
     50 H9          -5.6740     0.0970    -6.1480 ha         1 B43       0.121500
@<TRIPOS>BOND
     1     1     2 1   
     2     1    29 1   
     3     1    30 1   
     4     2     3 ar  
     5     2     7 ar  
     6     3     4 ar  
     7     4     5 ar  
     8     4    31 1   
     9     5     6 ar  
    10     6     7 ar  
    11     6     8 1   
    12     7    15 1   
    13     8     9 1   
    14     8    14 1   
    15     9    10 1   
    16     9    13 1   
    17     9    32 1   
    18    10    11 1   
    19    10    33 1   
    20    10    34 1   
    21    11    12 1   
    22    11    35 1   
    23    11    36 1   
    24    12    13 1   
    25    12    37 1   
    26    12    38 1   
    27    13    39 1   
    28    13    40 1   
    29    14    15 2   
    30    14    41 1   
    31    15    16 1   
    32    16    17 ar  
    33    16    21 ar  
    34    17    18 ar  
    35    17    42 1   
    36    18    19 ar  
    37    18    43 1   
    38    19    20 ar  
    39    19    22 1   
    40    20    21 ar  
    41    20    44 1   
    42    21    45 1   
    43    22    23 1   
    44    23    24 ar  
    45    23    28 ar  
    46    24    25 ar  
    47    24    46 1   
    48    25    26 ar  
    49    25    47 1   
    50    26    27 ar  
    51    26    48 1   
    52    27    28 ar  
    53    27    49 1   
    54    28    50 1   
@<TRIPOS>SUBSTRUCTURE
     1 B43         1 TEMP              0 ****  ****    0 ROOT
