@<TRIPOS>MOLECULE
molecule
   59    62     1     0     0
SMALL
bcc


@<TRIPOS>ATOM
      1 O1           0.0000     0.0000     0.0000 os         1 B44      -0.584200
      2 C7           2.9860    -0.2290     5.8350 ca         1 B44       0.465800
      3 O2           1.5960     0.0000     2.4370 os         1 B44      -0.367600
      4 C6           3.6760     0.7960     7.7720 ca         1 B44       0.709900
      5 C1           1.4290     0.0000     0.0000 c3         1 B44       0.240400
      6 N1           3.6340    -0.3330     8.4570 nb         1 B44      -0.847000
      7 C5           2.5090     0.4740     3.4510 c3         1 B44       0.247800
      8 C4           3.8660     0.6130     2.7260 c3         1 B44       0.077100
      9 C3           3.4830     0.7880     1.2400 c3         1 B44       0.081100
     10 C2           1.9390     0.7340     1.2420 c3         1 B44       0.123100
     11 O13         -6.7890     2.2510    -0.8810 o          1 B44      -0.800833
     12 P3          -6.3280     0.9770    -1.7510 p5         1 B44       1.332900
     13 O7          -7.4440    -0.1790    -1.6430 o          1 B44      -0.800833
     14 O10         -6.1680     1.3780    -3.1660 o          1 B44      -0.800833
     15 O12         -4.9240     0.4210    -1.1940 os         1 B44      -0.733800
     16 P2          -3.7610    -0.5050    -1.8160 p5         1 B44       1.507800
     17 O6          -4.2530    -2.0380    -1.8460 o          1 B44      -0.863000
     18 O9          -3.4580    -0.0560    -3.1930 o          1 B44      -0.863000
     19 O11         -2.4360    -0.3840    -0.9090 os         1 B44      -0.722800
     20 P1          -0.8760    -0.6880    -1.1630 p5         1 B44       1.434800
     21 O5          -0.4730    -0.1370    -2.4760 o          1 B44      -0.849500
     22 O8          -0.6300    -2.2790    -1.1500 o          1 B44      -0.849500
     23 O3           3.9400     2.0500     0.7500 oh         1 B44      -0.579800
     24 O4           4.5720     1.7610     3.2000 oh         1 B44      -0.572800
     25 N9           2.6080    -0.4960     4.5430 na         1 B44      -0.238000
     26 N3           3.3600     0.8610     6.4960 nb         1 B44      -0.783000
     27 C13          2.3410    -1.8300     4.4630 cc         1 B44       0.457700
     28 N7           2.5330    -2.3930     5.6210 nd         1 B44      -0.616100
     29 C8           2.9320    -1.4570     6.5160 ca         1 B44      -0.207200
     30 C9           3.2750    -1.4750     7.8790 ca         1 B44       0.774200
     31 N6           3.2340    -2.6530     8.6030 nu         1 B44      -0.899900
     32 C10          3.5870    -2.6520    10.0250 c3         1 B44       0.236800
     33 C11          3.4590    -4.0710    10.5840 c3         1 B44      -0.025100
     34 C12          3.8210    -4.0680    12.0470 ca         1 B44      -0.210300
     35 C18          5.1310    -4.2760    12.4350 ca         1 B44      -0.128500
     36 C17          5.4640    -4.2740    13.7760 ca         1 B44      -0.140000
     37 C16          4.4860    -4.0640    14.7300 ca         1 B44      -0.273000
     38 C15          3.1750    -3.8550    14.3430 ca         1 B44      -0.140000
     39 C14          2.8440    -3.8530    13.0010 ca         1 B44      -0.128500
     40 H6           3.9740     1.7040     8.2830 h5         1 B44       0.041100
     41 H1           1.7900    -1.0210     0.0110 h1         1 B44       0.029700
     42 H1A          1.7900     0.5010    -0.8900 h1         1 B44       0.029700
     43 H5           2.1840     1.4380     3.8250 h2         1 B44       0.104700
     44 H4           4.4570    -0.2850     2.8600 h1         1 B44       0.038700
     45 H3           3.8880    -0.0240     0.6480 h1         1 B44       0.048700
     46 H2           1.5300     1.7360     1.2880 h1         1 B44       0.086700
     47 HO3          4.5570     1.9110     0.0510 ho         1 B44       0.388000
     48 HO4          5.5000     1.6020     3.1510 ho         1 B44       0.386000
     49 H13          2.0160    -2.3470     3.5680 h5         1 B44       0.111800
     50 HN6          2.9820    -3.5100     8.1500 hn         1 B44       0.458800
     51 H10          4.6070    -2.3080    10.1430 h1         1 B44       0.047700
     52 H10A         2.9180    -1.9900    10.5620 h1         1 B44       0.047700
     53 H11          2.4380    -4.4150    10.4650 hc         1 B44       0.032200
     54 H11A         4.1280    -4.7320    10.0480 hc         1 B44       0.032200
     55 H18          5.8980    -4.4410    11.6870 ha         1 B44       0.098500
     56 H17          6.4910    -4.4370    14.0800 ha         1 B44       0.085500
     57 H16          4.7470    -4.0640    15.7820 ha         1 B44       0.083000
     58 H15          2.4090    -3.6890    15.0910 ha         1 B44       0.085500
     59 H14          1.8170    -3.6900    12.6970 ha         1 B44       0.098500
@<TRIPOS>BOND
     1     1     5 1
     2     1    20 1
     3    26     2 ar
     4     2    29 ar
     5     2    25 1
     6     7     3 1
     7     3    10 1
     8     4     6 ar
     9     4    26 ar
    10     4    40 1
    11    10     5 1
    12     5    41 1
    13     5    42 1
    14     6    30 ar
    15     8     7 1
    16    25     7 1
    17     7    43 1
    18    24     8 1
    19     8     9 1
    20     8    44 1
    21    23     9 1
    22     9    10 1
    23     9    45 1
    24    10    46 1
    25    12    11 1
    26    14    12 1
    27    12    13 1
    28    12    15 1
    29    15    16 1
    30    19    16 1
    31    16    18 1
    32    16    17 1
    33    20    19 1
    34    21    20 1
    35    20    22 1
    36    23    47 1
    37    24    48 1
    38    25    27 1
    39    28    27 2
    40    27    49 1
    41    29    28 1
    42    30    29 ar
    43    30    31 1
    44    32    31 1
    45    31    50 1
    46    32    33 1
    47    32    51 1
    48    32    52 1
    49    33    34 1
    50    33    53 1
    51    33    54 1
    52    34    39 ar
    53    34    35 ar
    54    35    36 ar
    55    35    55 1
    56    36    37 ar
    57    36    56 1
    58    38    37 ar
    59    37    57 1
    60    39    38 ar
    61    38    58 1
    62    39    59 1
@<TRIPOS>SUBSTRUCTURE
     1 B44         1 TEMP              0 ****  ****    0 ROOT
