@<TRIPOS>MOLECULE
molecule
   63    67     1     0     0
SMALL
bcc


@<TRIPOS>ATOM
      1 C6           0.0000     0.0000     0.0000 ca         1 B45      -0.105000
      2 C21          5.4660    -3.0250     7.3230 ca         1 B45      -0.079000
      3 C22          6.1520    -3.0440     8.5190 ca         1 B45      -0.167000
      4 C1           1.3820     0.0000     0.0000 ca         1 B45      -0.122500
      5 C5          -0.6940     0.0040     1.1950 ca         1 B45      -0.122500
      6 C17          3.0710    -3.6650     5.3570 ca         1 B45      -0.132000
      7 C19          2.0460    -2.4230     3.5790 ca         1 B45      -0.157000
      8 C24          4.2800    -2.0190     9.6210 ca         1 B45      -0.164000
      9 C20          4.1760    -2.5010     7.2700 cp         1 B45      -0.050000
     10 C16          3.4360    -2.4730     5.9850 cp         1 B45      -0.007000
     11 C18          2.3830    -3.6310     4.1590 ca         1 B45      -0.043300
     12 C13          3.1000    -1.2630     5.3960 ca         1 B45      -0.116300
     13 C14          2.4080    -1.2300     4.1930 ca         1 B45       0.092600
     14 C3           1.3810    -0.0020     2.3980 ca         1 B45       0.069600
     15 C23          5.5620    -2.5430     9.6680 ca         1 B45       0.145900
     16 C2           2.0750     0.0000     1.1950 ca         1 B45       0.049400
     17 C4          -0.0080     0.0030     2.3950 ca         1 B45       0.049400
     18 C25          3.5820    -2.0020     8.4290 ca         1 B45       0.054400
     19 C10          2.4020     1.1740     4.1670 c          1 B45       0.829500
     20 C12          3.4750     0.0530     6.0380 c3         1 B45       0.135300
     21 C29          3.2570    -5.7290     3.1630 c3         1 B45      -0.071900
     22 C33          1.0960    -5.7380     4.4130 c3         1 B45      -0.071900
     23 C30          2.8540    -7.0630     2.5310 c3         1 B45       0.160300
     24 C32          0.7570    -7.0720     3.7440 c3         1 B45       0.160300
     25 C28          1.9960    -4.9200     3.4820 c3         1 B45      -0.027400
     26 C35          0.9130    -9.9390     3.9920 c3         1 B45      -0.111600
     27 C36          0.8760    -9.0380     1.6620 c3         1 B45      -0.111600
     28 N11          3.0720     1.2790     5.3290 ns         1 B45      -0.580900
     29 N9           2.0800    -0.0030     3.6130 n          1 B45      -0.285200
     30 N31          1.9960    -7.8080     3.4600 n3         1 B45      -0.726600
     31 F27          6.2380    -2.5630    10.8370 f          1 B45      -0.132900
     32 Cl8          3.8110    -0.0070     1.1940 cl         1 B45      -0.079400
     33 Cl7         -0.8810     0.0010     3.8960 cl         1 B45      -0.079400
     34 Cl26         1.9760    -1.3460     8.3710 cl         1 B45      -0.079400
     35 H6          -0.5400     0.0000    -0.9390 ha         1 B45       0.145000
     36 H21          5.9290    -3.4180     6.4250 ha         1 B45       0.152000
     37 H22          7.1550    -3.4520     8.5600 ha         1 B45       0.152000
     38 H1           1.9230    -0.0010    -0.9390 ha         1 B45       0.151000
     39 H5          -1.7770     0.0060     1.1920 ha         1 B45       0.151000
     40 H17          3.3310    -4.6160     5.8060 ha         1 B45       0.145000
     41 H19          1.5070    -2.4060     2.6400 ha         1 B45       0.144000
     42 H24          3.8210    -1.6300    10.5220 ha         1 B45       0.161000
     43 H12          3.0300     0.0790     7.0250 h1         1 B45       0.054200
     44 H12A         4.5520     0.0730     6.1490 h1         1 B45       0.054200
     45 H29          3.8060    -5.9150     4.0780 hc         1 B45       0.052700
     46 H29A         3.8760    -5.1740     2.4700 hc         1 B45       0.052700
     47 H33          0.1830    -5.1890     4.6060 hc         1 B45       0.052700
     48 H33A         1.6160    -5.9240     5.3450 hc         1 B45       0.052700
     49 H30          3.7440    -7.6440     2.3200 h1         1 B45       0.036200
     50 H30A         2.3120    -6.8770     1.6120 h1         1 B45       0.036200
     51 H32          0.1340    -7.6590     4.4070 h1         1 B45       0.036200
     52 H32A         0.2300    -6.8850     2.8160 h1         1 B45       0.036200
     53 H28          1.4640    -4.7060     2.5630 hc         1 B45       0.055700
     54 H35          1.0130   -11.0000     3.7990 hc         1 B45       0.039367
     55 H35A         1.2950    -9.7150     4.9800 hc         1 B45       0.039367
     56 H35B        -0.1330    -9.6600     3.9380 hc         1 B45       0.039367
     57 H36          1.4360    -8.4820     0.9200 hc         1 B45       0.039367
     58 H36A         0.7550   -10.0620     1.3310 hc         1 B45       0.039367
     59 H36B        -0.0980    -8.5840     1.7950 hc         1 B45       0.039367
     60 H34          2.6320    -9.6680     2.7320 h1         1 B45       0.063700
     61 HN11         3.2920     2.1790     5.7070 hn         1 B45       0.359500
     62 O15          2.0750     2.1930     3.5910 o          1 B45      -0.671500
     63 C34          1.7030    -9.1520     2.9450 c3         1 B45       0.167500
@<TRIPOS>BOND
     1     5     1 ar
     2     4     1 ar
     3     1    35 1
     4     3     2 ar
     5     2     9 ar
     6     2    36 1
     7    15     3 ar
     8     3    37 1
     9    16     4 ar
    10     4    38 1
    11    17     5 ar
    12     5    39 1
    13    10     6 ar
    14     6    11 ar
    15     6    40 1
    16    11     7 ar
    17    13     7 ar
    18     7    41 1
    19    15     8 ar
    20     8    18 ar
    21     8    42 1
    22    18     9 ar
    23     9    10 1
    24    10    12 ar
    25    11    25 1
    26    20    12 1
    27    12    13 ar
    28    13    29 1
    29    29    14 1
    30    14    17 ar
    31    14    16 ar
    32    31    15 1
    33    32    16 1
    34    33    17 1
    35    18    34 1
    36    28    19 1
    37    19    29 1
    38    19    62 2
    39    20    28 1
    40    20    43 1
    41    20    44 1
    42    21    23 1
    43    21    25 1
    44    21    45 1
    45    21    46 1
    46    22    24 1
    47    22    25 1
    48    22    47 1
    49    22    48 1
    50    30    23 1
    51    23    49 1
    52    23    50 1
    53    30    24 1
    54    24    51 1
    55    24    52 1
    56    25    53 1
    57    26    63 1
    58    26    54 1
    59    26    55 1
    60    26    56 1
    61    63    27 1
    62    27    57 1
    63    27    58 1
    64    27    59 1
    65    30    63 1
    66    63    60 1
    67    28    61 1
@<TRIPOS>SUBSTRUCTURE
     1 B45         1 TEMP              0 ****  ****    0 ROOT
