@<TRIPOS>MOLECULE
B46
   52    55     1     0     0
SMALL
bcc


@<TRIPOS>ATOM
      1 O1           0.0000     0.0000     0.0000 o          1 B46      -0.666000
      2 C2           1.2150     0.0000     0.0000 c          1 B46       0.685100
      3 N3           1.8900     0.0000     1.1680 ns         1 B46      -0.149900
      4 C4           1.1570    -0.0010     2.4360 c3         1 B46       0.025700
      5 C5           2.1360    -0.0010     3.5810 cc         1 B46       0.363600
      6 C6           2.5850     1.1280     4.2670 cc         1 B46      -0.303300
      7 C7           3.4670     0.7030     5.2400 cd         1 B46      -0.140300
      8 N8           3.5480    -0.6570     5.1410 na         1 B46       0.445400
      9 N9           2.7010    -1.0610     4.1020 nd         1 B46      -0.651800
     10 C11          4.1860     1.5530     6.2000 cd         1 B46      -0.065400
     11 S12          4.7970     3.1770     5.8920 ss         1 B46      -0.287300
     12 C13          5.4160     3.2580     7.5380 cd         1 B46       0.550900
     13 N14          5.1440     2.1470     8.1630 nc         1 B46      -0.582000
     14 C15          4.4930     1.2250     7.4950 cc         1 B46       0.450200
     15 N16          4.1410    -0.0040     8.0610 nh         1 B46      -0.458300
     16 C17          4.5910    -0.0890     9.4560 c3         1 B46       0.085300
     17 C18          4.3200    -1.4960     9.9960 c3         1 B46      -0.014400
     18 C19          2.8200    -1.7910     9.9050 c3         1 B46      -0.034400
     19 C20          2.3670    -1.6480     8.4500 c3         1 B46      -0.014400
     20 C21          2.6950    -0.2380     7.9550 c3         1 B46       0.085300
     21 C22          6.1340     4.4100     8.1220 ca         1 B46      -0.302800
     22 C23          6.3690     5.5630     7.3620 ca         1 B46      -0.049000
     23 C24          7.0470     6.6130     7.9550 ca         1 B46      -0.193300
     24 C25          7.4660     6.4920     9.2690 ca         1 B46       0.411200
     25 N26          7.2300     5.3940     9.9610 nb         1 B46      -0.575000
     26 C27          6.5850     4.3690     9.4430 ca         1 B46       0.442200
     27 O28          1.8890    -0.0050    -1.1660 os         1 B46      -0.437900
     28 C29          1.0980    -0.0110    -2.3830 c3         1 B46       0.340500
     29 C30          1.9950    -0.0170    -3.5510 c1         1 B46      -0.156100
     30 C31          2.7010    -0.0390    -4.4880 c1         1 B46      -0.089500
     31 HN3          2.8730     0.1690     1.2440 hn         1 B46       0.178500
     32 H4           0.4870     0.8240     2.6460 h1         1 B46       0.031700
     33 H4A          0.4070    -0.7760     2.3340 h1         1 B46       0.031700
     34 H6           2.5340     2.2060     4.1790 ha         1 B46       0.147000
     35 H17          5.6630     0.0410     9.3680 h1         1 B46       0.026950
     36 H17A         4.6560     0.8100    10.0560 h1         1 B46       0.026950
     37 H18          5.0430    -2.1110     9.4740 hc         1 B46       0.037200
     38 H18A         4.9610    -1.3970    10.8640 hc         1 B46       0.037200
     39 H19          2.2610    -2.6900    10.1330 hc         1 B46       0.020700
     40 H19A         2.4950    -1.0850    10.6600 hc         1 B46       0.020700
     41 H20          2.9810    -2.4060     7.9790 hc         1 B46       0.037200
     42 H20A         1.3390    -1.4110     8.6960 hc         1 B46       0.037200
     43 H21          2.2220     0.6100     8.4360 h1         1 B46       0.026950
     44 H21A         2.4150    -0.1460     6.9130 h1         1 B46       0.026950
     45 H23          5.9500     5.2870     6.4020 ha         1 B46       0.127000
     46 H24          7.4580     7.4720     7.4400 ha         1 B46       0.118000
     47 H25          7.9550     7.3080     9.7860 h4         1 B46      -0.015900
     48 H27          6.0820     3.5840     9.9940 h4         1 B46      -0.000900
     49 H29          0.1650    -0.5530    -2.2930 h1         1 B46       0.029200
     50 H29A         0.8490     1.0150    -2.1400 h1         1 B46       0.029200
     51 H31          3.5550     0.1230    -5.1350 ha         1 B46       0.138500
     52 HN8          3.7450    -1.4030     5.7790 hn         1 B46       0.172700
@<TRIPOS>BOND
     1     1     2 2   
     2     2     3 1   
     3     2    27 1   
     4     3     4 1   
     5     3    31 1   
     6     4     5 1   
     7     4    32 1   
     8     4    33 1   
     9     5     6 1   
    10     5     9 2   
    11     6     7 2   
    12     6    34 1   
    13     7     8 1   
    14     7    10 1   
    15     8     9 1   
    16     8    52 1   
    17    10    11 1   
    18    10    14 2   
    19    11    12 1   
    20    12    13 2   
    21    12    21 1   
    22    13    14 1   
    23    14    15 1   
    24    15    16 1   
    25    15    20 1   
    26    16    17 1   
    27    16    35 1   
    28    16    36 1   
    29    17    18 1   
    30    17    37 1   
    31    17    38 1   
    32    18    19 1   
    33    18    39 1   
    34    18    40 1   
    35    19    20 1   
    36    19    41 1   
    37    19    42 1   
    38    20    43 1   
    39    20    44 1   
    40    21    22 ar  
    41    21    26 ar  
    42    22    23 ar  
    43    22    45 1   
    44    23    24 ar  
    45    23    46 1   
    46    24    25 ar  
    47    24    47 1   
    48    25    26 ar  
    49    26    48 1   
    50    27    28 1   
    51    28    29 1   
    52    28    49 1   
    53    28    50 1   
    54    29    30 3   
    55    30    51 1   
@<TRIPOS>SUBSTRUCTURE
     1 B46         1 TEMP              0 ****  ****    0 ROOT
