@<TRIPOS>MOLECULE
molecule
   52    55     1     0     0
SMALL
bcc


@<TRIPOS>ATOM
      1 O1           0.0000     0.0000     0.0000 o          1 B46      -0.619000
      2 C2           1.2150     0.0000     0.0000 c          1 B46       0.758100
      3 N3           1.8900     0.0000     1.1680 ns         1 B46      -0.553900
      4 C4           1.1570    -0.0010     2.4360 c3         1 B46       0.091700
      5 C5           2.1360    -0.0010     3.5810 cc         1 B46       0.338600
      6 C6           2.5850     1.1280     4.2670 cc         1 B46      -0.326300
      7 C7           3.4670     0.7030     5.2400 cd         1 B46       0.021700
      8 N8           3.5480    -0.6570     5.1410 na         1 B46      -0.016600
      9 N9           2.7010    -1.0610     4.1020 nd         1 B46      -0.514800
     10 C11          4.1860     1.5530     6.2000 cd         1 B46      -0.126400
     11 S12          4.7970     3.1770     5.8920 ss         1 B46      -0.181300
     12 C13          5.4160     3.2580     7.5380 cd         1 B46       0.549900
     13 N14          5.1440     2.1470     8.1630 nc         1 B46      -0.715000
     14 C15          4.4930     1.2250     7.4950 cc         1 B46       0.581200
     15 N16          4.1410    -0.0040     8.0610 nh         1 B46      -0.677300
     16 C17          4.5910    -0.0890     9.4560 c3         1 B46       0.117800
     17 C18          4.3200    -1.4960     9.9960 c3         1 B46      -0.069900
     18 C19          2.8200    -1.7910     9.9050 c3         1 B46      -0.089400
     19 C20          2.3670    -1.6480     8.4500 c3         1 B46      -0.069900
     20 C21          2.6950    -0.2380     7.9550 c3         1 B46       0.117800
     21 C22          6.1340     4.4100     8.1220 ca         1 B46      -0.295800
     22 C23          6.3690     5.5630     7.3620 ca         1 B46      -0.070000
     23 C24          7.0470     6.6130     7.9550 ca         1 B46      -0.232300
     24 C25          7.4660     6.4920     9.2690 ca         1 B46       0.431200
     25 N26          7.2300     5.3940     9.9610 nb         1 B46      -0.687000
     26 C27          6.5850     4.3690     9.4430 ca         1 B46       0.464200
     27 O28          1.8890    -0.0050    -1.1660 os         1 B46      -0.451900
     28 C29          1.0980    -0.0110    -2.3830 c3         1 B46       0.236500
     29 C30          1.9950    -0.0170    -3.5510 c1         1 B46      -0.133100
     30 C31          2.7010    -0.0390    -4.4880 c1         1 B46      -0.111500
     31 HN3          2.8730     0.1690     1.2440 hn         1 B46       0.330500
     32 H4           0.4870     0.8240     2.6460 h1         1 B46       0.064700
     33 H4A          0.4070    -0.7760     2.3340 h1         1 B46       0.064700
     34 H6           2.5340     2.2060     4.1790 ha         1 B46       0.163000
     35 H17          5.6630     0.0410     9.3680 h1         1 B46       0.051450
     36 H17A         4.6560     0.8100    10.0560 h1         1 B46       0.051450
     37 H18          5.0430    -2.1110     9.4740 hc         1 B46       0.067700
     38 H18A         4.9610    -1.3970    10.8640 hc         1 B46       0.067700
     39 H19          2.2610    -2.6900    10.1330 hc         1 B46       0.048700
     40 H19A         2.4950    -1.0850    10.6600 hc         1 B46       0.048700
     41 H20          2.9810    -2.4060     7.9790 hc         1 B46       0.067700
     42 H20A         1.3390    -1.4110     8.6960 hc         1 B46       0.067700
     43 H21          2.2220     0.6100     8.4360 h1         1 B46       0.051450
     44 H21A         2.4150    -0.1460     6.9130 h1         1 B46       0.051450
     45 H23          5.9500     5.2870     6.4020 ha         1 B46       0.145000
     46 H24          7.4580     7.4720     7.4400 ha         1 B46       0.147000
     47 H25          7.9550     7.3080     9.7860 h4         1 B46       0.031100
     48 H27          6.0820     3.5840     9.9940 h4         1 B46       0.048100
     49 H29          0.1650    -0.5530    -2.2930 h1         1 B46       0.076700
     50 H29A         0.8490     1.0150    -2.1400 h1         1 B46       0.076700
     51 H31          3.5550     0.1230    -5.1350 ha         1 B46       0.170500
     52 HN8          3.7450    -1.4030     5.7790 hn         1 B46       0.342700
@<TRIPOS>BOND
     1     2     1 2
     2    27     2 1
     3     2     3 1
     4     3     4 1
     5     3    31 1
     6     4     5 1
     7     4    32 1
     8     4    33 1
     9     5     9 2
    10     5     6 1
    11     6     7 2
    12     6    34 1
    13     8     7 1
    14     7    10 1
    15     9     8 1
    16    10    14 2
    17    10    11 1
    18    11    12 1
    19    13    12 2
    20    12    21 1
    21    14    13 1
    22    15    14 1
    23    20    15 1
    24    15    16 1
    25    17    16 1
    26    16    35 1
    27    16    36 1
    28    18    17 1
    29    17    37 1
    30    17    38 1
    31    19    18 1
    32    18    39 1
    33    18    40 1
    34    19    20 1
    35    19    41 1
    36    19    42 1
    37    20    43 1
    38    20    44 1
    39    21    26 ar
    40    21    22 ar
    41    22    23 ar
    42    22    45 1
    43    23    24 ar
    44    23    46 1
    45    25    24 ar
    46    24    47 1
    47    26    25 ar
    48    26    48 1
    49    28    27 1
    50    29    28 1
    51    28    49 1
    52    28    50 1
    53    30    29 3
    54    30    51 1
    55     8    52 1
@<TRIPOS>SUBSTRUCTURE
     1 B46         1 TEMP              0 ****  ****    0 ROOT
