@<TRIPOS>MOLECULE
molecule
   52    55     1     0     0
SMALL
bcc


@<TRIPOS>ATOM
      1 C1           0.0000     0.0000     0.0000 c3         1 B47       0.159700
      2 O2           1.4520     0.0000     0.0000 os         1 B47      -0.441900
      3 C3           2.0640     0.0000     1.1990 c          1 B47       0.748100
      4 O4           1.4020    -0.0010     2.2190 o          1 B47      -0.616000
      5 N5           3.4100     0.0000     1.2700 ns         1 B47      -0.569900
      6 C6           4.0750    -0.0010     2.5750 c3         1 B47       0.120700
      7 C7           5.5690    -0.0000     2.3780 cc         1 B47       0.306600
      8 C8           6.3880     1.1270     2.3750 cc         1 B47      -0.324300
      9 C9           7.6850     0.7030     2.1640 cd         1 B47       0.018700
     10 N10          7.6460    -0.6560     2.0420 na         1 B47      -0.009600
     11 N11          6.3130    -1.0600     2.1850 nd         1 B47      -0.490800
     12 C13          8.8820     1.5540     2.0860 cd         1 B47      -0.072400
     13 S14          9.2210     2.9600     3.0920 ss         1 B47      -0.170300
     14 C15         10.7460     3.2000     2.2450 cd         1 B47       0.538900
     15 N16         10.8890     2.2790     1.3330 nc         1 B47      -0.712000
     16 C17          9.9320     1.3890     1.2200 cc         1 B47       0.552200
     17 N18          9.9770     0.3530     0.2840 nh         1 B47      -0.703300
     18 C19         11.1380    -0.5160     0.5160 c3         1 B47       0.166300
     19 C20         11.0760    -1.7170    -0.4310 c3         1 B47      -0.092400
     20 C21         11.0690    -1.2190    -1.8780 c3         1 B47       0.146100
     21 O22         10.9560    -2.3340    -2.7660 oh         1 B47      -0.602800
     22 C23          9.8780    -0.2790    -2.0810 c3         1 B47      -0.092400
     23 C24          9.9750     0.8800    -1.0860 c3         1 B47       0.166300
     24 C25         11.7160     4.2790     2.5250 ca         1 B47      -0.133500
     25 C26         12.8940     4.3730     1.7820 ca         1 B47      -0.097000
     26 C27         13.7940     5.3830     2.0490 ca         1 B47      -0.131000
     27 C28         13.5330     6.3010     3.0500 ca         1 B47      -0.111000
     28 C29         12.3680     6.2140     3.7910 ca         1 B47      -0.131000
     29 C30         11.4550     5.2120     3.5300 ca         1 B47      -0.097000
     30 H1          -0.3610     0.8840     0.5110 h1         1 B47       0.048700
     31 H1A         -0.3610    -0.8850     0.5110 h1         1 B47       0.048700
     32 H1B         -0.3610     0.0000    -1.0210 h1         1 B47       0.048700
     33 HN5          3.9550    -0.0020     0.4310 hn         1 B47       0.330500
     34 H6           3.7840     0.8840     3.1290 h1         1 B47       0.067700
     35 H6A          3.7850    -0.8850     3.1280 h1         1 B47       0.067700
     36 H8           6.0650     2.1520     2.5130 ha         1 B47       0.161000
     37 H19         12.0480     0.0420     0.3300 h1         1 B47       0.047950
     38 H19A        11.1260    -0.8660     1.5410 h1         1 B47       0.047950
     39 H20         11.9430    -2.3480    -0.2710 hc         1 B47       0.060950
     40 H20A        10.1720    -2.2820    -0.2390 hc         1 B47       0.060950
     41 H21         11.9880    -0.6830    -2.0790 h1         1 B47       0.029700
     42 HO22        11.7070    -2.3600    -3.3360 ho         1 B47       0.401000
     43 H23          9.8940     0.1110    -3.0920 hc         1 B47       0.060950
     44 H23A         8.9560    -0.8230    -1.9130 hc         1 B47       0.060950
     45 H24          9.1240     1.5380    -1.2170 h1         1 B47       0.047950
     46 H24A        10.8920     1.4290    -1.2620 h1         1 B47       0.047950
     47 H26         13.1010     3.6550     0.9970 ha         1 B47       0.143000
     48 H27         14.7090     5.4570     1.4730 ha         1 B47       0.136000
     49 H28         14.2450     7.0910     3.2570 ha         1 B47       0.134000
     50 H29         12.1680     6.9370     4.5720 ha         1 B47       0.136000
     51 H30         10.5430     5.1440     4.1110 ha         1 B47       0.143000
     52 HN10         8.4310    -1.2570     1.8830 hn         1 B47       0.343700
@<TRIPOS>BOND
     1     1     2 1
     2     1    30 1
     3     1    31 1
     4     1    32 1
     5     2     3 1
     6     3     4 2
     7     3     5 1
     8     5     6 1
     9     5    33 1
    10     6     7 1
    11     6    34 1
    12     6    35 1
    13     8     7 1
    14     7    11 2
    15     8     9 2
    16     8    36 1
    17    12     9 1
    18     9    10 1
    19    11    10 1
    20    16    12 2
    21    12    13 1
    22    14    13 1
    23    15    14 2
    24    14    24 1
    25    16    15 1
    26    17    16 1
    27    23    17 1
    28    17    18 1
    29    19    18 1
    30    18    37 1
    31    18    38 1
    32    20    19 1
    33    19    39 1
    34    19    40 1
    35    21    20 1
    36    22    20 1
    37    20    41 1
    38    21    42 1
    39    22    23 1
    40    22    43 1
    41    22    44 1
    42    23    45 1
    43    23    46 1
    44    25    24 ar
    45    24    29 ar
    46    25    26 ar
    47    25    47 1
    48    26    27 ar
    49    26    48 1
    50    27    28 ar
    51    27    49 1
    52    29    28 ar
    53    28    50 1
    54    29    51 1
    55    10    52 1
@<TRIPOS>SUBSTRUCTURE
     1 B47         1 TEMP              0 ****  ****    0 ROOT
