@<TRIPOS>MOLECULE
B48
   29    31     1     0     0
SMALL
bcc


@<TRIPOS>ATOM
      1 C1          0.2610   -0.0340   -0.0640 c3        1 B48     -0.065000
      2 S2          2.0010    0.0790    0.0830 ss        1 B48     -0.213400
      3 C3          2.3060    0.0510    1.7290 cc        1 B48      0.364600
      4 C4          3.6420    0.1250    2.2840 cc        1 B48     -0.262300
      5 C5          3.4620    0.0700    3.6810 cd        1 B48     -0.017300
      6 N6          2.0750   -0.0350    3.8850 na        1 B48     -0.001600
      7 N8          1.3930   -0.0410    2.7460 nd        1 B48     -0.518800
      8 C9          4.4360    0.0870    4.7260 cd        1 B48     -0.149400
      9 S10         5.9600   -0.5990    4.5370 ss        1 B48     -0.054300
     10 C11         6.3910   -0.1580    6.1410 cd        1 B48      0.486900
     11 N12         5.4300    0.4950    6.8140 nc        1 B48     -0.623000
     12 C13         4.3090    0.6420    6.0090 cc        1 B48      0.366600
     13 C14         3.1010    1.3420    6.5090 c3        1 B48     -0.135400
     14 C15         7.6890   -0.4650    6.6670 cd        1 B48     -0.180600
     15 C16         8.3470    0.2430    7.6620 cc        1 B48     -0.097000
     16 C17         9.6260   -0.3220    7.9510 cc        1 B48     -0.163000
     17 C18         9.8810   -1.4300    7.1710 cd        1 B48     -0.153100
     18 S19         8.6180   -1.7720    6.1400 ss        1 B48      0.027200
     19 H1          0.0560   -0.0170   -1.1610 h1        1 B48      0.071700
     20 H1A        -0.1410   -0.9780    0.3680 h1        1 B48      0.071700
     21 H1B        -0.2620    0.8210    0.4190 h1        1 B48      0.071700
     22 H4          4.5710    0.2140    1.7320 ha        1 B48      0.175000
     23 H14         2.3340    0.5920    6.8270 hc        1 B48      0.056367
     24 H14A        2.6730    1.9880    5.7030 hc        1 B48      0.056367
     25 H14B        3.3380    1.9890    7.3910 hc        1 B48      0.056367
     26 H16         7.9430    1.1240    8.1670 ha        1 B48      0.171000
     27 H17        10.3040    0.0900    8.7020 ha        1 B48      0.159000
     28 H18        10.7890   -2.0310    7.2060 h4        1 B48      0.175000
     29 HN6         1.6080   -0.0700    4.7620 hn        1 B48      0.324700
@<TRIPOS>BOND
     1    1    2 1   
     2    1   19 1   
     3    1   20 1   
     4    1   21 1   
     5    2    3 1   
     6    3    4 1   
     7    3    7 2   
     8    4    5 2   
     9    4   22 1   
    10    5    6 1   
    11    5    8 1   
    12    6    7 1   
    13    6   29 1   
    14    8    9 1   
    15    8   12 2   
    16    9   10 1   
    17   10   11 2   
    18   10   14 1   
    19   11   12 1   
    20   12   13 1   
    21   13   23 1   
    22   13   24 1   
    23   13   25 1   
    24   14   15 2   
    25   14   18 1   
    26   15   16 1   
    27   15   26 1   
    28   16   17 2   
    29   16   27 1   
    30   17   18 1   
    31   17   28 1   
@<TRIPOS>SUBSTRUCTURE
     1 B48         1 TEMP              0 ****  ****    0 ROOT
