@<TRIPOS>MOLECULE
molecule
   29    31     1     0     0
SMALL
bcc


@<TRIPOS>ATOM
      1 C1           0.0000     0.0000     0.0000 c3         1 B48      -0.017000
      2 S2           1.8140     0.0000     0.0000 ss         1 B48      -0.298400
      3 C3           2.2090     0.0000     1.7170 cc         1 B48       0.456600
      4 C4           3.5010     0.0060     2.2580 cc         1 B48      -0.302300
      5 C5           3.3780     0.0050     3.6320 cd         1 B48       0.014700
      6 N6           2.0420    -0.0030     3.9170 na         1 B48      -0.033600
      7 N8           1.3430    -0.0000     2.7040 nd         1 B48      -0.521800
      8 C9           4.4800     0.0090     4.6080 cd         1 B48      -0.095400
      9 S10          6.0330    -0.8020     4.4190 ss         1 B48      -0.177300
     10 C11          6.5340    -0.2060     5.9990 cd         1 B48       0.565900
     11 N12          5.5680     0.5050     6.5170 nc         1 B48      -0.675000
     12 C13          4.4780     0.6400     5.8050 cc         1 B48       0.390600
     13 C14          3.2970     1.4420     6.2890 c3         1 B48      -0.126400
     14 C15          7.8320    -0.4700     6.6350 cd         1 B48      -0.094600
     15 C16          8.2160    -0.0130     7.8600 cc         1 B48      -0.101000
     16 C17          9.4850    -0.3960     8.2380 cc         1 B48      -0.163000
     17 C18         10.1390    -1.1510     7.3510 cd         1 B48      -0.059100
     18 S19          9.1300    -1.4300     5.9380 ss         1 B48      -0.130800
     19 H1          -0.3610    -0.8850     0.5110 h1         1 B48       0.068700
     20 H1A         -0.3610    -0.0000    -1.0210 h1         1 B48       0.068700
     21 H1B         -0.3610     0.8850     0.5110 h1         1 B48       0.068700
     22 H4           4.4290     0.0110     1.6990 ha         1 B48       0.167000
     23 H14          2.9170     2.0500     5.4770 hc         1 B48       0.054367
     24 H14A         3.6060     2.0820     7.1060 hc         1 B48       0.054367
     25 H14B         2.5200     0.7690     6.6310 hc         1 B48       0.054367
     26 H16          7.5770     0.6000     8.4850 ha         1 B48       0.169000
     27 H17          9.9210    -0.1030     9.1860 ha         1 B48       0.154000
     28 H18         11.1420    -1.5390     7.4840 h4         1 B48       0.175000
     29 HN6          1.6340    -0.0040     4.8310 hn         1 B48       0.333700
@<TRIPOS>BOND
     1     2     1 1
     2     1    19 1
     3     1    20 1
     4     1    21 1
     5     2     3 1
     6     4     3 1
     7     3     7 2
     8     4     5 2
     9     4    22 1
    10     8     5 1
    11     5     6 1
    12     7     6 1
    13    12     8 2
    14     8     9 1
    15    10     9 1
    16    11    10 2
    17    10    14 1
    18    12    11 1
    19    13    12 1
    20    13    23 1
    21    13    24 1
    22    13    25 1
    23    15    14 2
    24    14    18 1
    25    15    16 1
    26    15    26 1
    27    16    17 2
    28    16    27 1
    29    17    18 1
    30    17    28 1
    31     6    29 1
@<TRIPOS>SUBSTRUCTURE
     1 B48         1 TEMP              0 ****  ****    0 ROOT
