@<TRIPOS>MOLECULE
molecule
   56    58     1     0     0
SMALL
bcc


@<TRIPOS>ATOM
      1 C4           0.0000     0.0000     0.0000 c3         1 B49      -0.029800
      2 C5           8.1730    -0.9800    -4.7220 ca         1 B49      -0.138000
      3 C6           6.9410    -1.5930    -4.8270 ca         1 B49      -0.128000
      4 C7           7.5470    -0.0150    -2.6170 ca         1 B49      -0.123000
      5 C13          3.4550     0.0000     1.3630 cc         1 B49      -0.058300
      6 C15          8.4800    -0.1930    -3.6220 ca         1 B49       0.112900
      7 C17          6.3020    -0.6290    -2.7160 ca         1 B49      -0.070800
      8 C20          5.1070    -0.6460    -1.8420 cc         1 B49      -0.215400
      9 C21          4.1340    -1.4950    -2.5430 c          1 B49       0.718700
     10 C22          1.3420    -0.0080     2.8350 c          1 B49       0.704700
     11 C3           4.5030    -0.0020     2.4460 c3         1 B49      -0.026800
     12 C12          4.9430    -0.0030    -0.6320 cf         1 B49       0.077800
     13 C14          1.4790     0.0020     0.2880 cd         1 B49      -0.036600
     14 C16          5.9910    -1.4240    -3.8270 ca         1 B49       0.031600
     15 C18          3.6810     0.0000     0.0000 cd         1 B49      -0.160100
     16 C19          2.0560    -0.0020     1.5450 cc         1 B49      -0.243600
     17 N23          2.4560     0.0030    -0.6350 na         1 B49      -0.096100
     18 N24          4.6980    -1.9190    -3.6860 ns         1 B49      -0.447100
     19 N25          1.0170    -1.1770     3.4200 ns         1 B49      -0.585900
     20 O27          3.0120    -1.7670    -2.1540 o          1 B49      -0.645500
     21 O28          1.0470     1.0430     3.3710 o          1 B49      -0.603100
     22 H4          -0.4940     0.7190     0.6430 hc         1 B49       0.055700
     23 H4A         -0.4030    -0.9880     0.1860 hc         1 B49       0.055700
     24 H4B         -0.1660     0.2680    -1.0360 hc         1 B49       0.055700
     25 H5           8.9080    -1.1150    -5.5060 ha         1 B49       0.150000
     26 H6           6.7140    -2.2050    -5.6920 ha         1 B49       0.139000
     27 H7           7.7840     0.5990    -1.7570 ha         1 B49       0.148000
     28 H3           4.0570     0.3190     3.3800 hc         1 B49       0.047367
     29 H3A          5.3030     0.6760     2.1760 hc         1 B49       0.047367
     30 H3B          4.9010    -1.0030     2.5620 hc         1 B49       0.047367
     31 H12          5.7720     0.5360    -0.1890 ha         1 B49       0.153000
     32 HN23         2.3170     0.0030    -1.6260 hn         1 B49       0.322700
     33 HN24         4.2460    -2.5140    -4.3510 hn         1 B49       0.341500
     34 HN25         1.2790    -2.0420     2.9900 hn         1 B49       0.316500
     35 C37          0.3080    -1.1820     4.7020 c3         1 B49       0.108000
     36 C38          0.0630    -2.6260     5.1440 c3         1 B49       0.142800
     37 N4          -0.6490    -2.6320     6.4290 n3         1 B49      -0.726600
     38 C39         -2.0010    -2.0760     6.2840 c3         1 B49       0.155300
     39 C40         -0.6930    -3.9850     7.0000 c3         1 B49       0.155300
     40 C41          0.6730    -4.3330     7.5950 c3         1 B49      -0.093100
     41 C42         -2.5570    -1.7230     7.6650 c3         1 B49      -0.093100
     42 H14         -0.6410    -0.6720     4.5920 h1         1 B49       0.059700
     43 H15          0.9070    -0.6730     5.4480 h1         1 B49       0.059700
     44 H16          1.0130    -3.1360     5.2540 h1         1 B49       0.036700
     45 H17         -0.5350    -3.1350     4.3970 h1         1 B49       0.036700
     46 H18         -1.9610    -1.1840     5.6720 h1         1 B49       0.035200
     47 H19         -2.6440    -2.8090     5.8130 h1         1 B49       0.035200
     48 H20         -1.4460    -4.0230     7.7780 h1         1 B49       0.035200
     49 H21         -0.9410    -4.6970     6.2230 h1         1 B49       0.035200
     50 H22          0.5400    -4.9860     8.4490 hc         1 B49       0.039700
     51 H23          1.1730    -3.4250     7.9100 hc         1 B49       0.039700
     52 H24          1.2750    -4.8350     6.8470 hc         1 B49       0.039700
     53 H25         -1.7400    -1.4620     8.3270 hc         1 B49       0.039700
     54 H26         -3.0910    -2.5750     8.0680 hc         1 B49       0.039700
     55 H27         -3.2330    -0.8810     7.5770 hc         1 B49       0.039700
     56 F29          9.6890     0.4000    -3.5310 f          1 B49      -0.137900
@<TRIPOS>BOND
     1     1    13 1
     2     1    22 1
     3     1    23 1
     4     1    24 1
     5     2     3 ar
     6     2     6 ar
     7     2    25 1
     8     3    14 ar
     9     3    26 1
    10     4     6 ar
    11     4     7 ar
    12     4    27 1
    13     5    11 1
    14     5    15 2
    15     5    16 1
    16     6    56 1
    17     7     8 1
    18     7    14 ar
    19     8     9 1
    20     8    12 2
    21     9    18 1
    22     9    20 2
    23    10    16 1
    24    10    19 1
    25    10    21 2
    26    11    28 1
    27    11    29 1
    28    11    30 1
    29    12    15 1
    30    12    31 1
    31    13    16 2
    32    13    17 1
    33    14    18 1
    34    15    17 1
    35    17    32 1
    36    18    33 1
    37    19    34 1
    38    19    35 1
    39    35    36 1
    40    36    37 1
    41    37    38 1
    42    37    39 1
    43    39    40 1
    44    38    41 1
    45    35    42 1
    46    35    43 1
    47    36    44 1
    48    36    45 1
    49    38    46 1
    50    38    47 1
    51    39    48 1
    52    39    49 1
    53    40    50 1
    54    40    51 1
    55    40    52 1
    56    41    53 1
    57    41    54 1
    58    41    55 1
@<TRIPOS>SUBSTRUCTURE
     1 B49         1 TEMP              0 ****  ****    0 ROOT
