@<TRIPOS>MOLECULE
B49
   56    58     1     0     0
SMALL
bcc


@<TRIPOS>ATOM
      1 C4           0.0000     0.0000     0.0000 c3         1 B49       0.099200
      2 C5           8.1730    -0.9800    -4.7220 ca         1 B49      -0.110000
      3 C6           6.9410    -1.5930    -4.8270 ca         1 B49      -0.084000
      4 C7           7.5470    -0.0150    -2.6170 ca         1 B49      -0.087000
      5 C13          3.4550     0.0000     1.3630 cc         1 B49      -0.055300
      6 C15          8.4800    -0.1930    -3.6220 ca         1 B49       0.088900
      7 C17          6.3020    -0.6290    -2.7160 ca         1 B49      -0.054800
      8 C20          5.1070    -0.6460    -1.8420 cc         1 B49      -0.257400
      9 C21          4.1340    -1.4950    -2.5430 c          1 B49       0.632700
     10 C22          1.3420    -0.0080     2.8350 c          1 B49       0.636700
     11 C3           4.5030    -0.0020     2.4460 c3         1 B49       0.088200
     12 C12          4.9430    -0.0030    -0.6320 cf         1 B49       0.162800
     13 C14          1.4790     0.0020     0.2880 cd         1 B49      -0.261600
     14 C16          5.9910    -1.4240    -3.8270 ca         1 B49      -0.131400
     15 C18          3.6810     0.0000     0.0000 cd         1 B49      -0.377100
     16 C19          2.0560    -0.0020     1.5450 cc         1 B49      -0.243600
     17 N23          2.4560     0.0030    -0.6350 na         1 B49       0.494900
     18 N24          4.6980    -1.9190    -3.6860 ns         1 B49       0.020900
     19 N25          1.0170    -1.1770     3.4200 ns         1 B49      -0.198900
     20 O27          3.0120    -1.7670    -2.1540 o          1 B49      -0.709500
     21 O28          1.0470     1.0430     3.3710 o          1 B49      -0.648100
     22 H4          -0.1680     0.2930    -1.0290 hc         1 B49       0.012033
     23 H4A         -0.3980    -0.9940     0.1620 hc         1 B49       0.012033
     24 H4B         -0.4970     0.7000     0.6600 hc         1 B49       0.012033
     25 H5           8.9080    -1.1150    -5.5060 ha         1 B49       0.120000
     26 H6           6.7140    -2.2050    -5.6920 ha         1 B49       0.109000
     27 H7           7.7840     0.5990    -1.7570 ha         1 B49       0.120000
     28 H3           4.9000    -1.0040     2.5620 hc         1 B49       0.009033
     29 H3A          5.3040     0.6750     2.1760 hc         1 B49       0.009033
     30 H3B          4.0570     0.3190     3.3800 hc         1 B49       0.009033
     31 H12          5.7720     0.5340    -0.1880 ha         1 B49       0.110000
     32 HN23         2.3170     0.0030    -1.6260 hn         1 B49       0.140700
     33 HN24         4.2460    -2.5140    -4.3510 hn         1 B49       0.176500
     34 HN25         1.2750    -2.0420     2.9880 hn         1 B49       0.176500
     35 C37          0.3080    -1.1820     4.7020 c3         1 B49       0.037000
     36 C38          0.0630    -2.6260     5.1440 c3         1 B49       0.135800
     37 N4          -0.6490    -2.6320     6.4290 n3         1 B49      -0.532600
     38 C39         -2.0010    -2.0760     6.2840 c3         1 B49       0.141300
     39 C40         -0.6930    -3.9850     7.0000 c3         1 B49       0.141300
     40 C41          0.6730    -4.3330     7.5950 c3         1 B49      -0.000100
     41 C42         -2.5570    -1.7230     7.6650 c3         1 B49      -0.000100
     42 H14          0.9070    -0.6730     5.4480 h1         1 B49       0.034200
     43 H15         -0.6410    -0.6720     4.5920 h1         1 B49       0.034200
     44 H16         -0.5350    -3.1350     4.3970 h1         1 B49       0.011700
     45 H17          1.0130    -3.1360     5.2540 h1         1 B49       0.011700
     46 H18         -2.6440    -2.8090     5.8130 h1         1 B49       0.011950
     47 H19         -1.9610    -1.1840     5.6720 h1         1 B49       0.011950
     48 H20         -1.4460    -4.0230     7.7780 h1         1 B49       0.011950
     49 H21         -0.9410    -4.6970     6.2230 h1         1 B49       0.011950
     50 H22          0.5380    -4.9600     8.4690 hc         1 B49       0.007033
     51 H23          1.1860    -3.4220     7.8800 hc         1 B49       0.007033
     52 H24          1.2630    -4.8640     6.8580 hc         1 B49       0.007033
     53 H25         -3.2140    -0.8660     7.5810 hc         1 B49       0.007033
     54 H26         -3.1120    -2.5660     8.0580 hc         1 B49       0.007033
     55 H27         -1.7380    -1.4860     8.3340 hc         1 B49       0.007033
     56 F29          9.6890     0.4000    -3.5310 f          1 B49      -0.125900
@<TRIPOS>BOND
     1     1    13 1   
     2     1    22 1   
     3     1    23 1   
     4     1    24 1   
     5     2     3 ar  
     6     2     6 ar  
     7     2    25 1   
     8     3    14 ar  
     9     3    26 1   
    10     4     6 ar  
    11     4     7 ar  
    12     4    27 1   
    13     5    11 1   
    14     5    15 2   
    15     5    16 1   
    16     6    56 1   
    17     7     8 1   
    18     7    14 ar  
    19     8     9 1   
    20     8    12 2   
    21     9    18 1   
    22     9    20 2   
    23    10    16 1   
    24    10    19 1   
    25    10    21 2   
    26    11    28 1   
    27    11    29 1   
    28    11    30 1   
    29    12    15 1   
    30    12    31 1   
    31    13    16 2   
    32    13    17 1   
    33    14    18 1   
    34    15    17 1   
    35    17    32 1   
    36    18    33 1   
    37    19    34 1   
    38    19    35 1   
    39    35    36 1   
    40    35    42 1   
    41    35    43 1   
    42    36    37 1   
    43    36    44 1   
    44    36    45 1   
    45    37    38 1   
    46    37    39 1   
    47    38    41 1   
    48    38    46 1   
    49    38    47 1   
    50    39    40 1   
    51    39    48 1   
    52    39    49 1   
    53    40    50 1   
    54    40    51 1   
    55    40    52 1   
    56    41    53 1   
    57    41    54 1   
    58    41    55 1   
@<TRIPOS>SUBSTRUCTURE
     1 B49         1 TEMP              0 ****  ****    0 ROOT
