@<TRIPOS>MOLECULE
B4A
   63    67     1     0     0
SMALL
bcc


@<TRIPOS>ATOM
      1 N12          0.0000     0.0000     0.0000 ns         1 B4A      -0.080400
      2 C13          1.3480     0.0000     0.0000 c          1 B4A       0.531100
      3 C15          3.5830     0.0050    -1.0300 ca         1 B4A      -0.077300
      4 C17          5.6220     1.1990    -0.6380 ca         1 B4A      -0.097000
      5 C20          4.2620    -1.1930    -0.9100 ca         1 B4A      -0.082000
      6 C26         -8.2300     4.1140     6.3710 cc         1 B4A       0.415300
      7 C28        -10.3660     5.1090     6.0810 c          1 B4A       0.531100
      8 C01         -4.2840    -0.6120     6.2050 c3         1 B4A      -0.040900
      9 C02         -5.5210     0.2570     5.9620 c3         1 B4A       0.132800
     10 N03         -5.2660     1.6190     6.4450 nh         1 B4A      -0.419300
     11 C04         -4.1520     2.2410     5.7180 c3         1 B4A       0.132800
     12 C05         -2.8740     1.4320     5.9530 c3         1 B4A      -0.040900
     13 C06         -3.0880    -0.0040     5.4670 c3         1 B4A       0.132500
     14 C08         -2.2950     0.0000     3.1260 cc         1 B4A       0.583300
     15 N09         -1.0380    -0.0070     3.4430 nd         1 B4A      -0.404000
     16 N10         -0.1570    -0.0060     2.3840 nd         1 B4A      -0.257000
     17 C11         -0.6960    -0.0010     1.2060 cc         1 B4A       0.397300
     18 C14          2.1020     0.0070    -1.3050 c3         1 B4A      -0.032100
     19 C16          4.2620     1.2010    -0.8900 ca         1 B4A      -0.082000
     20 C18          6.3010     0.0010    -0.5240 ca         1 B4A      -0.097000
     21 C19          5.6210    -1.1950    -0.6580 ca         1 B4A      -0.097000
     22 O21          1.9550    -0.0070     1.0500 o          1 B4A      -0.545100
     23 S22         -2.4490    -0.0010     1.3720 ss         1 B4A      -0.464800
     24 C23         -6.4120     2.4000     6.3600 cc         1 B4A       0.557300
     25 N24         -7.5630     1.9990     5.9180 nd         1 B4A      -0.351000
     26 N25         -8.5650     2.9450     5.9250 nd         1 B4A      -0.285000
     27 C29        -11.2850     6.2980     6.1900 c3         1 B4A      -0.030100
     28 C30        -12.6560     5.9200     5.6920 ca         1 B4A      -0.079300
     29 C31        -13.5930     5.4080     6.5690 ca         1 B4A      -0.082500
     30 C32        -14.8510     5.0610     6.1130 ca         1 B4A      -0.096500
     31 C33        -15.1720     5.2270     4.7780 ca         1 B4A      -0.096000
     32 C34        -14.2350     5.7410     3.9010 ca         1 B4A      -0.096500
     33 C35        -12.9780     6.0920     4.3590 ca         1 B4A      -0.082500
     34 O36        -10.7830     4.0580     5.6420 o          1 B4A      -0.540100
     35 S37         -6.5330     4.0900     6.8360 ss         1 B4A      -0.432800
     36 H1          -0.5000    -0.0010    -0.8670 hn         1 B4A       0.171500
     37 H2           6.1540     2.1360    -0.5310 ha         1 B4A       0.102000
     38 H3           3.7290    -2.1300    -1.0140 ha         1 B4A       0.101500
     39 H4          -4.0720    -0.6480     7.2670 hc         1 B4A       0.038200
     40 H5          -4.4680    -1.6120     5.8330 hc         1 B4A       0.038200
     41 H6          -6.3650    -0.1620     6.4970 h1         1 B4A       0.029450
     42 H7          -5.7370     0.2860     4.9010 h1         1 B4A       0.029450
     43 H8          -4.0080     3.2520     6.0770 h1         1 B4A       0.029450
     44 H9          -4.3780     2.2570     4.6590 h1         1 B4A       0.029450
     45 H10         -2.6420     1.4240     7.0110 hc         1 B4A       0.038200
     46 H11         -2.0570     1.8810     5.4010 hc         1 B4A       0.038200
     47 H12         -2.2020    -0.5900     5.6750 h1         1 B4A       0.063700
     48 H13         -4.2950    -0.0500     3.6910 hn         1 B4A       0.307800
     49 H14          1.8400     0.8950    -1.8690 hc         1 B4A       0.029700
     50 H15          1.8400    -0.8740    -1.8790 hc         1 B4A       0.029700
     51 H16          3.7290     2.1400    -0.9810 ha         1 B4A       0.101500
     52 H17          7.3660    -0.0000    -0.3270 ha         1 B4A       0.101000
     53 H18          6.1540    -2.1340    -0.5660 ha         1 B4A       0.102000
     54 H19         -8.7350     6.0790     6.8330 hn         1 B4A       0.174500
     55 H20        -10.8950     7.1120     5.5910 hc         1 B4A       0.030700
     56 H21        -11.3500     6.6110     7.2250 hc         1 B4A       0.030700
     57 H22        -13.3410     5.2780     7.6150 ha         1 B4A       0.102000
     58 H23        -15.5850     4.6590     6.8000 ha         1 B4A       0.102000
     59 H24        -16.1570     4.9540     4.4190 ha         1 B4A       0.101000
     60 H25        -14.4860     5.8730     2.8550 ha         1 B4A       0.102000
     61 H26        -12.2430     6.4940     3.6710 ha         1 B4A       0.102000
     62 N07         -3.3530     0.0010     4.0260 nu         1 B4A      -0.472900
     63 N27         -9.0790     5.2120     6.4710 ns         1 B4A      -0.078400
@<TRIPOS>BOND
     1     1     2 1   
     2     1    17 1   
     3     1    36 1   
     4     2    18 1   
     5     2    22 2   
     6     3     5 ar  
     7     3    18 1   
     8     3    19 ar  
     9     4    19 ar  
    10     4    20 ar  
    11     4    37 1   
    12     5    21 ar  
    13     5    38 1   
    14     6    26 2   
    15     6    35 1   
    16     6    63 1   
    17     7    27 1   
    18     7    34 2   
    19     7    63 1   
    20     8     9 1   
    21     8    13 1   
    22     8    39 1   
    23     8    40 1   
    24     9    10 1   
    25     9    41 1   
    26     9    42 1   
    27    10    11 1   
    28    10    24 1   
    29    11    12 1   
    30    11    43 1   
    31    11    44 1   
    32    12    13 1   
    33    12    45 1   
    34    12    46 1   
    35    13    47 1   
    36    13    62 1   
    37    14    15 2   
    38    14    23 1   
    39    14    62 1   
    40    15    16 1   
    41    16    17 2   
    42    17    23 1   
    43    18    49 1   
    44    18    50 1   
    45    19    51 1   
    46    20    21 ar  
    47    20    52 1   
    48    21    53 1   
    49    24    25 2   
    50    24    35 1   
    51    25    26 1   
    52    27    28 1   
    53    27    55 1   
    54    27    56 1   
    55    28    29 ar  
    56    28    33 ar  
    57    29    30 ar  
    58    29    57 1   
    59    30    31 ar  
    60    30    58 1   
    61    31    32 ar  
    62    31    59 1   
    63    32    33 ar  
    64    32    60 1   
    65    33    61 1   
    66    48    62 1   
    67    54    63 1   
@<TRIPOS>SUBSTRUCTURE
     1 B4A         1 TEMP              0 ****  ****    0 ROOT
