@<TRIPOS>MOLECULE
molecule
   53    58     1     0     0
SMALL
bcc


@<TRIPOS>ATOM
      1 C01          0.0000     0.0000     0.0000 c3         1 B4B       0.155300
      2 C02          1.5310     0.0000     0.0000 c3         1 B4B       0.165800
      3 N03          2.0190     0.0000     1.3860 nh         1 B4B      -0.599000
      4 C04          1.5310     1.1810     2.1130 c3         1 B4B       0.165800
      5 C05          0.0010     1.1810     2.1130 c3         1 B4B       0.155300
      6 N06         -0.4870     1.1810     0.7270 n7         1 B4B      -0.822200
      7 C07          3.4120    -0.0730     1.4260 ca         1 B4B       0.119600
      8 C08          4.1390    -0.1270     0.2430 ca         1 B4B      -0.168000
      9 C09          5.5160    -0.1990     0.2800 ca         1 B4B      -0.086000
     10 C10          6.1780    -0.2170     1.5060 ca         1 B4B      -0.078000
     11 C11          5.4470    -0.1620     2.6920 ca         1 B4B      -0.086000
     12 C12          4.0720    -0.0850     2.6500 ca         1 B4B      -0.168000
     13 C13          7.6600    -0.2940     1.5480 cc         1 B4B      -0.220300
     14 C14          8.3290    -1.4370     1.0650 cc         1 B4B       0.472200
     15 N15          9.6390    -1.4980     1.1060 nd         1 B4B      -0.664000
     16 C16         10.3610    -0.4890     1.6020 cd         1 B4B       0.403500
     17 C17         11.7430    -0.3010     1.7580 cc         1 B4B      -0.278800
     18 C18         11.9250     0.9600     2.3390 cc         1 B4B       0.434500
     19 N19         10.7520     1.5130     2.5280 nd         1 B4B      -0.572100
     20 N20          9.7530     0.6410     2.0810 na         1 B4B       0.044200
     21 C21          8.3920     0.7450     2.0520 cd         1 B4B       0.019700
     22 C22         12.8050    -1.2560     1.3810 ca         1 B4B       0.021200
     23 C23         13.6050    -1.8350     2.3540 ca         1 B4B      -0.122000
     24 C24         14.6050    -2.7330     2.0040 ca         1 B4B      -0.119000
     25 C25         14.8300    -3.0690     0.7030 ca         1 B4B      -0.167300
     26 C26         14.0440    -2.5060    -0.3190 ca         1 B4B       0.418600
     27 C27         13.0160    -1.5940     0.0220 ca         1 B4B      -0.139300
     28 C28         12.2300    -1.0390    -0.9990 ca         1 B4B      -0.060000
     29 C29         12.4900    -1.4100    -2.2890 ca         1 B4B      -0.266300
     30 C30         13.5120    -2.3160    -2.5570 ca         1 B4B       0.430200
     31 N31         14.2510    -2.8250    -1.6010 nb         1 B4B      -0.684000
     32 H1          -0.3600     0.0320    -1.0210 h1         1 B4B       0.042450
     33 H2          -0.3600    -0.8970     0.4880 h1         1 B4B       0.042450
     34 H3           1.8900     0.8860    -0.5090 h1         1 B4B       0.050700
     35 H4           1.8900    -0.8860    -0.5090 h1         1 B4B       0.050700
     36 H5           1.8910     2.0780     1.6250 h1         1 B4B       0.050700
     37 H6           1.8910     1.1490     3.1340 h1         1 B4B       0.050700
     38 H7          -0.3600     0.2940     2.6210 h1         1 B4B       0.042450
     39 H8          -0.3600     2.0670     2.6220 h1         1 B4B       0.042450
     40 H9          -1.4870     1.1850     0.7250 hn         1 B4B       0.358800
     41 H11          3.6230    -0.1130    -0.7100 ha         1 B4B       0.142500
     42 H12          6.0820    -0.2410    -0.6430 ha         1 B4B       0.137000
     43 H13          5.9600    -0.1730     3.6460 ha         1 B4B       0.137000
     44 H14          3.5040    -0.0420     3.5710 ha         1 B4B       0.142500
     45 H15          7.7610    -2.2730     0.6740 h4         1 B4B       0.045100
     46 H16         12.8800     1.4060     2.5900 h4         1 B4B       0.069800
     47 H17          7.9180     1.7000     2.2420 h4         1 B4B       0.184000
     48 H18         13.4480    -1.5860     3.3970 ha         1 B4B       0.134000
     49 H19         15.2190    -3.1750     2.7800 ha         1 B4B       0.132000
     50 H20         15.6160    -3.7710     0.4540 ha         1 B4B       0.146000
     51 H21         11.4390    -0.3340    -0.7710 ha         1 B4B       0.143000
     52 H22         11.8960    -1.0070    -3.1000 ha         1 B4B       0.134000
     53 H23         13.7070    -2.6020    -3.5840 h4         1 B4B       0.019100
@<TRIPOS>BOND
     1     6     5 1
     2     6     1 1
     3     5     4 1
     4     1     2 1
     5     4     3 1
     6     2     3 1
     7     3     7 1
     8     7    12 ar
     9     7     8 ar
    10    12    11 ar
    11     8     9 ar
    12    11    10 ar
    13     9    10 ar
    14    10    13 1
    15    13    21 2
    16    13    14 1
    17    21    20 1
    18    14    15 2
    19    20    19 1
    20    20    16 1
    21    19    18 2
    22    15    16 1
    23    16    17 2
    24    18    17 1
    25    17    22 1
    26    28    27 ar
    27    28    29 ar
    28    22    27 ar
    29    22    23 ar
    30    27    26 ar
    31    29    30 ar
    32    23    24 ar
    33    26    31 ar
    34    26    25 ar
    35    30    31 ar
    36    24    25 ar
    37     1    32 1
    38     1    33 1
    39     2    34 1
    40     2    35 1
    41     4    36 1
    42     4    37 1
    43     5    38 1
    44     5    39 1
    45     6    40 1
    46     8    41 1
    47     9    42 1
    48    11    43 1
    49    12    44 1
    50    14    45 1
    51    18    46 1
    52    21    47 1
    53    23    48 1
    54    24    49 1
    55    25    50 1
    56    28    51 1
    57    29    52 1
    58    30    53 1
@<TRIPOS>SUBSTRUCTURE
     1 B4B         1 TEMP              0 ****  ****    0 ROOT
