@<TRIPOS>MOLECULE
B4B
   53    58     1     0     0
SMALL
bcc


@<TRIPOS>ATOM
      1 C01          0.0000     0.0000     0.0000 c3         1 B4B       0.144800
      2 C02          1.5310     0.0000     0.0000 c3         1 B4B       0.136300
      3 N03          2.0190     0.0000     1.3860 nh         1 B4B      -0.362000
      4 C04          1.5310     1.1810     2.1130 c3         1 B4B       0.136300
      5 C05          0.0010     1.1810     2.1130 c3         1 B4B       0.144800
      6 N06         -0.4870     1.1810     0.7270 n7         1 B4B      -0.584200
      7 C07          3.4120    -0.0730     1.4260 ca         1 B4B       0.037600
      8 C08          4.1390    -0.1270     0.2430 ca         1 B4B      -0.148500
      9 C09          5.5160    -0.1990     0.2800 ca         1 B4B      -0.055000
     10 C10          6.1780    -0.2170     1.5060 ca         1 B4B      -0.077000
     11 C11          5.4470    -0.1620     2.6920 ca         1 B4B      -0.055000
     12 C12          4.0720    -0.0850     2.6500 ca         1 B4B      -0.148500
     13 C13          7.6600    -0.2940     1.5480 cc         1 B4B      -0.163300
     14 C14          8.3290    -1.4370     1.0650 cc         1 B4B       0.420200
     15 N15          9.6390    -1.4980     1.1060 nd         1 B4B      -0.525000
     16 C16         10.3610    -0.4890     1.6020 cd         1 B4B       0.185500
     17 C17         11.7430    -0.3010     1.7580 cc         1 B4B      -0.290800
     18 C18         11.9250     0.9600     2.3390 cc         1 B4B       0.503500
     19 N19         10.7520     1.5130     2.5280 nd         1 B4B      -0.740100
     20 N20          9.7530     0.6410     2.0810 na         1 B4B       0.550200
     21 C21          8.3920     0.7450     2.0520 cd         1 B4B      -0.170300
     22 C22         12.8050    -1.2560     1.3810 ca         1 B4B       0.036200
     23 C23         13.6050    -1.8350     2.3540 ca         1 B4B      -0.099000
     24 C24         14.6050    -2.7330     2.0040 ca         1 B4B      -0.092000
     25 C25         14.8300    -3.0690     0.7030 ca         1 B4B      -0.146300
     26 C26         14.0440    -2.5060    -0.3190 ca         1 B4B       0.375600
     27 C27         13.0160    -1.5940     0.0220 ca         1 B4B      -0.133300
     28 C28         12.2300    -1.0390    -0.9990 ca         1 B4B      -0.045000
     29 C29         12.4900    -1.4100    -2.2890 ca         1 B4B      -0.232300
     30 C30         13.5120    -2.3160    -2.5570 ca         1 B4B       0.410200
     31 N31         14.2510    -2.8250    -1.6010 nb         1 B4B      -0.573000
     32 H1          -0.3600     0.0320    -1.0210 h1         1 B4B       0.013450
     33 H2          -0.3600    -0.8970     0.4880 h1         1 B4B       0.013450
     34 H3           1.8900     0.8860    -0.5090 h1         1 B4B       0.024950
     35 H4           1.8900    -0.8860    -0.5090 h1         1 B4B       0.024950
     36 H5           1.8910     2.0780     1.6250 h1         1 B4B       0.024950
     37 H6           1.8910     1.1490     3.1340 h1         1 B4B       0.024950
     38 H7          -0.3600     0.2940     2.6210 h1         1 B4B       0.013450
     39 H8          -0.3600     2.0670     2.6220 h1         1 B4B       0.013450
     40 H9          -1.4870     1.1850     0.7250 hn         1 B4B       0.256800
     41 H11          3.6230    -0.1130    -0.7100 ha         1 B4B       0.122500
     42 H12          6.0820    -0.2410    -0.6430 ha         1 B4B       0.107500
     43 H13          5.9600    -0.1730     3.6460 ha         1 B4B       0.107500
     44 H14          3.5040    -0.0420     3.5710 ha         1 B4B       0.122500
     45 H15          7.7610    -2.2730     0.6740 h4         1 B4B      -0.001900
     46 H16         12.8800     1.4060     2.5900 h4         1 B4B       0.018800
     47 H17          7.9180     1.7000     2.2420 h4         1 B4B       0.153000
     48 H18         13.4480    -1.5860     3.3970 ha         1 B4B       0.107000
     49 H19         15.2190    -3.1750     2.7800 ha         1 B4B       0.102000
     50 H20         15.6160    -3.7710     0.4540 ha         1 B4B       0.116000
     51 H21         11.4390    -0.3340    -0.7710 ha         1 B4B       0.113000
     52 H22         11.8960    -1.0070    -3.1000 ha         1 B4B       0.109000
     53 H23         13.7070    -2.6020    -3.5840 h4         1 B4B      -0.024900
@<TRIPOS>BOND
     1     1     2 1   
     2     1     6 1   
     3     1    32 1   
     4     1    33 1   
     5     2     3 1   
     6     2    34 1   
     7     2    35 1   
     8     3     4 1   
     9     3     7 1   
    10     4     5 1   
    11     4    36 1   
    12     4    37 1   
    13     5     6 1   
    14     5    38 1   
    15     5    39 1   
    16     6    40 1   
    17     7     8 ar  
    18     7    12 ar  
    19     8     9 ar  
    20     8    41 1   
    21     9    10 ar  
    22     9    42 1   
    23    10    11 ar  
    24    10    13 1   
    25    11    12 ar  
    26    11    43 1   
    27    12    44 1   
    28    13    14 1   
    29    13    21 2   
    30    14    15 2   
    31    14    45 1   
    32    15    16 1   
    33    16    17 2   
    34    16    20 1   
    35    17    18 1   
    36    17    22 1   
    37    18    19 2   
    38    18    46 1   
    39    19    20 1   
    40    20    21 1   
    41    21    47 1   
    42    22    23 ar  
    43    22    27 ar  
    44    23    24 ar  
    45    23    48 1   
    46    24    25 ar  
    47    24    49 1   
    48    25    26 ar  
    49    25    50 1   
    50    26    27 ar  
    51    26    31 ar  
    52    27    28 ar  
    53    28    29 ar  
    54    28    51 1   
    55    29    30 ar  
    56    29    52 1   
    57    30    31 ar  
    58    30    53 1   
@<TRIPOS>SUBSTRUCTURE
     1 B4B         1 TEMP              0 ****  ****    0 ROOT
