@<TRIPOS>MOLECULE
B4C
   97    90     1     0     0
SMALL
bcc


@<TRIPOS>ATOM
      1 C10        -0.0560   -0.9140    0.6060 c1        1 B4C     -0.036000
      2 C12         1.0680   -2.2540    2.3090 c1        1 B4C     -0.131000
      3 C21        10.4900   -3.7100   -5.6290 c2        1 B4C     -0.540000
      4 C28         7.5660   -6.1430    4.5020 c2        1 B4C     -0.299000
      5 C26        11.6500   -6.2220    4.7240 c3        1 B4C     -0.315000
      6 C25        11.9270   -7.9070    0.2530 c2        1 B4C      0.008000
      7 C24        10.6390   -6.4770   -1.2240 c2        1 B4C      0.287000
      8 C23         7.3530   -5.2510   -5.6110 c2        1 B4C     -0.216000
      9 C13         1.6150   -3.3520    2.7260 c2        1 B4C     -0.187000
     10 C14         8.5980   -4.8310    0.7710 c2        1 B4C      0.272000
     11 C19         8.1540   -2.9820   -5.0360 c3        1 B4C     -0.181000
     12 C18         7.7680   -4.3800   -4.6850 c2        1 B4C     -0.133000
     13 C16         9.2180   -5.2670   -2.8790 c3        1 B4C     -0.164000
     14 C15         9.2940   -5.7270   -1.4170 c3        1 B4C      0.016000
     15 C8          2.1200   -1.0400   -0.6080 c1        1 B4C     -0.203000
     16 C7          3.3080   -1.1880   -0.6090 c1        1 B4C     -0.219000
     17 C5          8.3890   -3.5760    1.6620 c3        1 B4C      0.031000
     18 C4          9.4170   -3.6730    2.8000 c3        1 B4C     -0.174000
     19 C3          9.4340   -2.4290    3.6600 c3        1 B4C     -0.156000
     20 C30        12.1200   -8.6140    1.4030 c2        1 B4C     -0.034000
     21 C31        13.3360   -9.3610    1.6550 c2        1 B4C      0.023000
     22 C2         10.3660   -2.5910    4.8340 c3        1 B4C     -0.234000
     23 C9          0.6980   -0.8510   -0.6250 c3        1 B4C     -0.086000
     24 C11         0.3940   -1.1990    1.9100 c2        1 B4C     -0.155000
     25 O2          4.7770   -3.1110    1.8230 oh        1 B4C     -0.316000
     26 C6          6.0550   -2.9400    1.3530 c2        1 B4C      0.399000
     27 O1          6.1990   -2.2710    0.3100 o         1 B4C     -0.430000
     28 N2          7.0300   -3.5110    2.1390 n         1 B4C     -0.331000
     29 C1          8.4520   -1.2820    7.2750 c1        1 B4C     -0.203000
     30 N1          7.6600   -2.2370    6.9070 n3        1 B4C     -0.220000
     31 N3          9.1580   -4.6480   -0.4720 n         1 B4C     -0.366000
     32 C20         9.5150   -2.6950   -5.4570 c1        1 B4C     -0.032000
     33 C22        11.7230   -3.4370   -6.0340 c1        1 B4C      0.362000
     34 N4         10.7800   -7.1890   -0.0410 n         1 B4C     -0.312000
     35 C29         6.7200   -5.5250    5.2830 c1        1 B4C     -0.036000
     36 O5         11.1670   -8.5900    2.4060 oh        1 B4C     -0.271000
     37 O6         14.3960   -9.2010    0.7360 os        1 B4C     -0.124000
     38 C37        15.4160  -10.0250    1.2100 c2        1 B4C     -0.115000
     39 C36        18.0980   -9.7900   -0.8250 c1        1 B4C      0.205000
     40 C35        18.9660   -9.4780   -1.7670 c2        1 B4C     -0.345000
     41 C34        20.2500   -9.9880   -1.9670 c1        1 B4C     -0.114000
     42 C33        21.3520  -10.4180   -2.1500 c1        1 B4C     -0.179000
     43 C32        14.9590  -10.6410    2.3670 c2        1 B4C     -0.178000
     44 N6         13.6510  -10.2170    2.6350 n2        1 B4C     -0.150000
     45 N5          6.0110   -4.8010    6.0000 n2        1 B4C     -0.231000
     46 H10         0.2180   -1.6140   -1.3170 hc        1 B4C      0.156500
     47 H12         1.0320   -4.2620    2.9360 ha        1 B4C      0.143500
     48 H28         8.5630   -6.4690    4.8770 ha        1 B4C      0.189500
     49 H28A       10.9100   -7.2600    6.4860 ha        1 B4C      0.044000
     50 H27         9.7890   -8.5430    4.4700 ha        1 B4C      0.006250
     51 H27A       10.2860   -8.8900    4.7810 ha        1 B4C      0.006250
     52 H26        11.4070   -5.1760    4.3900 hc        1 B4C      0.120000
     53 H26A       12.6910   -6.2370    5.1340 hc        1 B4C      0.120000
     54 H25        11.6260   -6.8750    3.8000 hc        1 B4C      0.120000
     55 H23         7.0590   -6.2790   -5.3630 ha        1 B4C      0.115500
     56 H13         2.7010   -3.4390    2.8960 ha        1 B4C      0.143500
     57 H19         7.9440   -2.2920   -4.1650 hc        1 B4C      0.143500
     58 H16         9.9920   -4.4790   -3.0780 hc        1 B4C      0.109000
     59 H16A        9.4760   -6.1490   -3.5240 hc        1 B4C      0.109000
     60 H15         8.4610   -6.4750   -1.2290 h1        1 B4C      0.132000
     61 H7          4.3670   -1.3100   -0.6210 ha        1 B4C      0.245000
     62 H7A         4.1780   -2.5960    1.2500 ho        1 B4C      0.269000
     63 H5          8.5830   -2.6330    1.0660 h1        1 B4C      0.134000
     64 H4         10.4270   -3.8240    2.3340 hc        1 B4C      0.107000
     65 H4A         9.1980   -4.5800    3.4300 hc        1 B4C      0.107000
     66 H3          8.4000   -2.2110    4.0400 hc        1 B4C      0.086000
     67 H3A         9.7480   -1.5470    3.0440 hc        1 B4C      0.086000
     68 H30        12.7300   -7.8630   -0.5130 h4        1 B4C      0.189000
     69 H2         11.4300   -2.6030    4.4970 hc        1 B4C      0.088000
     70 H2A        10.1600   -3.5490    5.3730 hc        1 B4C      0.088000
     71 H9          0.4630    0.1630   -1.0810 hc        1 B4C      0.156500
     72 H11         0.0120   -0.4840    2.6740 ha        1 B4C      0.174000
     73 HN2         6.7600   -4.1430    2.8630 hn        1 B4C      0.259000
     74 H1         10.2200   -1.7500    5.5610 hc        1 B4C      0.088000
     75 H1A         8.0780   -0.6060    8.0740 ha        1 B4C      0.039000
     76 HN1         6.7450   -2.4330    7.2600 hn        1 B4C      0.192500
     77 HN1A        7.9610   -2.8640    6.1890 hn        1 B4C      0.192500
     78 HN3         9.3620   -3.7310   -0.7950 hn        1 B4C      0.244000
     79 H20         7.5020   -2.6080   -5.8840 hc        1 B4C      0.143500
     80 H22         7.2750   -4.9870   -6.6740 ha        1 B4C      0.115500
     81 HN4        10.0280   -7.1970    0.6250 hn        1 B4C      0.272000
     82 H29         8.9050   -7.7740    2.6090 ha        1 B4C      0.006250
     83 H29A        8.7410   -8.2350    2.1380 ha        1 B4C      0.006250
     84 HO5        11.0260   -9.5050    2.6970 ho        1 B4C      0.233000
     85 H36        16.3290  -10.0280    0.6120 h4        1 B4C      0.232000
     86 H35        18.6400   -8.7030   -2.5060 ha        1 B4C      0.209000
     87 H34        22.3280  -10.8000   -2.3110 ha        1 B4C      0.231000
     88 H33        15.4610  -11.3510    3.0230 h4        1 B4C      0.190000
     89 HN5         7.3530   -6.3580    3.4440 ha        1 B4C      0.189500
     90 HN5A        5.3160   -5.2430    6.5680 hn        1 B4C      0.175000
     91 O3          8.2890   -5.9700    1.1810 o         1 B4C     -0.388000
     92 O4         11.5320   -6.4530   -2.0890 o         1 B4C     -0.348000
     93 C17         7.8390   -4.7550   -3.2420 c3        1 B4C     -0.132000
     94 H21        10.2350   -4.7770   -5.4230 ha        1 B4C      0.183000
     95 C27        10.6050   -6.7050    5.5860 c1        1 B4C     -0.092000
     96 H17         7.5770   -3.8640   -2.6090 hc        1 B4C      0.093000
     97 H17A        7.0770   -5.5510   -3.0180 hc        1 B4C      0.093000
@<TRIPOS>BOND
     1    1   23 1
     2    1   24 1
     3    2    9 1
     4    2   24 1
     5    3   32 1
     6    3   33 1
     7    3   94 1
     8    4   35 1
     9    4   48 1
    10    4   89 1
    11    5   52 1
    12    5   53 1
    13    5   54 1
    14    5   95 1
    15    6   20 1
    16    6   34 1
    17    6   68 1
    18    7   14 1
    19    7   34 1
    20    7   92 1
    21    8   12 1
    22    8   55 1
    23    8   80 1
    24    9   47 1
    25    9   56 1
    26   10   17 1
    27   10   31 1
    28   10   91 1
    29   11   12 1
    30   11   32 1
    31   11   57 1
    32   11   79 1
    33   12   93 1
    34   13   14 1
    35   13   58 1
    36   13   59 1
    37   13   93 1
    38   14   31 1
    39   14   60 1
    40   15   16 1
    41   15   23 1
    42   16   61 1
    43   17   18 1
    44   17   28 1
    45   17   63 1
    46   18   19 1
    47   18   64 1
    48   18   65 1
    49   19   22 1
    50   19   66 1
    51   19   67 1
    52   20   21 1
    53   20   36 1
    54   21   37 1
    55   21   44 1
    56   22   69 1
    57   22   70 1
    58   22   74 1
    59   23   46 1
    60   23   71 1
    61   24   72 1
    62   25   26 1
    63   25   62 1
    64   26   27 1
    65   26   28 1
    66   28   73 1
    67   29   30 1
    68   29   75 1
    69   30   76 1
    70   30   77 1
    71   31   78 1
    72   34   81 1
    73   35   45 1
    74   36   84 1
    75   37   38 1
    76   38   43 1
    77   38   85 1
    78   39   40 1
    79   40   41 1
    80   40   86 1
    81   41   42 1
    82   42   87 1
    83   43   44 1
    84   43   88 1
    85   45   90 1
    86   49   95 1
    87   50   51 1
    88   82   83 1
    89   93   96 1
    90   93   97 1
@<TRIPOS>SUBSTRUCTURE
     1 B4C         1 TEMP              0 ****  ****    0 ROOT
