@<TRIPOS>MOLECULE
molecule
   37    38     1     0     0
SMALL
bcc


@<TRIPOS>ATOM
      1 C01          0.0000     0.0000     0.0000 c2         1 B4D      -0.181000
      2 C02          1.3100     0.0000     0.0000 c2         1 B4D      -0.178200
      3 C03          2.0640     0.0000     1.3050 c3         1 B4D       0.058900
      4 S04          2.9910    -1.5500     1.4680 ss         1 B4D      -0.321200
      5 C05          3.8180    -1.3650     3.0720 c3         1 B4D      -0.026300
      6 C06          4.6550    -2.6120     3.3620 c3         1 B4D       0.509700
      7 N07          5.7430    -2.7080     2.3910 nu         1 B4D      -0.735600
      8 C08          6.8270    -1.8350     2.3680 ca         1 B4D       0.311600
      9 C09          7.5530    -1.6960     1.1870 ca         1 B4D      -0.143000
     10 C10          8.6440    -0.8510     1.1370 ca         1 B4D       0.137400
     11 Cl11         9.5410    -0.6830    -0.3410 cl         1 B4D      -0.071400
     12 C12          9.0240    -0.1360     2.2590 ca         1 B4D      -0.385500
     13 S13         10.4220     0.9350     2.1920 sy         1 B4D       1.245200
     14 N14         11.7550    -0.0140     1.9340 nz         1 B4D      -0.811500
     15 O15         10.2630     1.7290     1.0250 o          1 B4D      -0.511300
     16 O16         10.5680     1.4860     3.4940 o          1 B4D      -0.511300
     17 C17          8.3050    -0.2640     3.4330 ca         1 B4D       0.125000
     18 C18          7.2100    -1.1020     3.4840 ca         1 B4D      -0.360500
     19 S19          6.2700    -1.2310     4.9760 sy         1 B4D       1.409200
     20 O20          7.1730    -1.6310     5.9970 o          1 B4D      -0.598800
     21 O21          5.4640    -0.0640     5.0550 o          1 B4D      -0.598800
     22 N22          5.2360    -2.5150     4.7160 n7         1 B4D      -0.932100
     23 H01         -0.5420    -0.0000    -0.9380 ha         1 B4D       0.122500
     24 H01A        -0.5420     0.0000     0.9380 ha         1 B4D       0.122500
     25 H02          1.8520    -0.0000    -0.9380 ha         1 B4D       0.137000
     26 H03          2.7530     0.8360     1.3240 h1         1 B4D       0.067200
     27 H03A         1.3640     0.0900     2.1270 h1         1 B4D       0.067200
     28 H05          3.0740    -1.2410     3.8500 h1         1 B4D       0.086200
     29 H05A         4.4620    -0.4950     3.0480 h1         1 B4D       0.086200
     30 H06          4.0340    -3.4960     3.2970 h2         1 B4D       0.118700
     31 HN07         6.0740    -3.6520     2.3530 hn         1 B4D       0.426800
     32 H09          7.2620    -2.2550     0.3060 ha         1 B4D       0.189000
     33 HN14        11.7960    -0.2780     0.9690 hn         1 B4D       0.494133
     34 HN1A        12.5810     0.4980     2.1750 hn         1 B4D       0.494133
     35 H17          8.5950     0.3020     4.3100 ha         1 B4D       0.181000
     36 HN22         5.0230    -3.1790     5.4340 hn         1 B4D       0.482800
     37 H143        11.6980    -0.8330     2.5080 hn         1 B4D       0.494133
@<TRIPOS>BOND
     1     1     2 2
     2     2     3 1
     3     3     4 1
     4     4     5 1
     5     5     6 1
     6     6     7 1
     7     6    22 1
     8     7     8 1
     9     8     9 ar
    10     8    18 ar
    11     9    10 ar
    12    10    11 1
    13    10    12 ar
    14    12    13 1
    15    12    17 ar
    16    13    14 1
    17    13    15 2
    18    13    16 2
    19    17    18 ar
    20    18    19 1
    21    19    20 2
    22    19    21 2
    23    19    22 1
    24     1    23 1
    25     1    24 1
    26     2    25 1
    27     3    26 1
    28     3    27 1
    29     5    28 1
    30     5    29 1
    31     6    30 1
    32     7    31 1
    33     9    32 1
    34    14    33 1
    35    14    34 1
    36    17    35 1
    37    22    36 1
    38    37    14 1
@<TRIPOS>SUBSTRUCTURE
     1 B4D         1 TEMP              0 ****  ****    0 ROOT
