@<TRIPOS>MOLECULE
B4F
   77    82     1     0     0
SMALL
bcc


@<TRIPOS>ATOM
      1 O1           0.0000     0.0000     0.0000 o          1 B4F      -0.725500
      2 C1           1.2160     0.0000     0.0000 c          1 B4F       0.622500
      3 N1           1.9470     0.0000     1.1240 ns         1 B4F      -0.214900
      4 N2           1.9470    -0.0060    -1.1220 ns         1 B4F      -0.214900
      5 C2           3.3750    -0.0050    -0.7650 c3         1 B4F       0.009700
      6 C3           3.3740    -0.0010     0.7680 c3         1 B4F       0.008700
      7 C4           4.0430    -1.2590     1.3560 c3         1 B4F       0.084700
      8 S1           3.8510    -2.4890     0.0020 ss         1 B4F      -0.391200
      9 C5           4.0440    -1.2660    -1.3450 c3         1 B4F       0.062400
     10 C6           3.3150    -1.7360    -2.6060 c3         1 B4F      -0.016400
     11 C7           4.0730    -2.9100    -3.2260 c3         1 B4F      -0.037400
     12 C8           3.3440    -3.3810    -4.4870 c3         1 B4F      -0.013400
     13 C9           4.1030    -4.5560    -5.1060 c3         1 B4F      -0.096400
     14 C10          3.3840    -5.0190    -6.3470 c          1 B4F       0.569100
     15 O2           2.3660    -4.4640    -6.7010 o          1 B4F      -0.651100
     16 N3           3.8740    -6.0490    -7.0650 ns         1 B4F      -0.190900
     17 C11          3.1760    -6.5000    -8.2710 c3         1 B4F       0.034000
     18 C12          3.9340    -7.6740    -8.8920 c3         1 B4F       0.042000
     19 N4           3.2360    -8.1250   -10.0980 ns         1 B4F      -0.218900
     20 C13          3.7250    -9.1550   -10.8160 c          1 B4F       0.605700
     21 O3           4.7470    -9.7110   -10.4610 o          1 B4F      -0.645100
     22 C14          3.0190    -9.6100   -12.0340 ca         1 B4F      -0.185600
     23 C15          3.5280   -10.6770   -12.7750 ca         1 B4F       0.009000
     24 C16          1.8440    -8.9740   -12.4360 ca         1 B4F      -0.114000
     25 C17          1.1800    -9.3910   -13.5710 ca         1 B4F      -0.125000
     26 C18          1.6800   -10.4530   -14.3240 ca         1 B4F      -0.041000
     27 C19          2.8640   -11.1040   -13.9190 ca         1 B4F      -0.089600
     28 C20          3.3980   -12.2320   -14.7090 c          1 B4F       0.961200
     29 O4           4.5300   -12.8510   -14.3200 o          1 B4F      -0.858300
     30 O5           2.8160   -12.6030   -15.7090 o          1 B4F      -0.858300
     31 C21          0.9680   -10.8990   -15.5370 cc         1 B4F       0.182000
     32 C22         -0.2720   -11.6710   -15.4490 ca         1 B4F      -0.198300
     33 C23         -0.8210   -12.0090   -14.2030 ca         1 B4F      -0.014000
     34 C24         -1.9760   -12.7300   -14.1450 ca         1 B4F      -0.182000
     35 C25         -2.6170   -13.1310   -15.3180 ca         1 B4F       0.161100
     36 O6          -3.7670   -13.8470   -15.2440 oh         1 B4F      -0.503100
     37 C26         -2.0900   -12.8060   -16.5570 ca         1 B4F      -0.254300
     38 C27         -0.9140   -12.0740   -16.6380 ca         1 B4F       0.409000
     39 O7          -0.3930   -11.7530   -17.8400 os         1 B4F      -0.346800
     40 C28          0.7480   -11.0440   -17.9660 cd         1 B4F       0.369700
     41 C29          1.4570   -10.5920   -16.8250 cd         1 B4F      -0.195100
     42 C30          1.2330   -10.7470   -19.2230 cc         1 B4F      -0.339200
     43 C31          2.4160   -10.0110   -19.3590 c          1 B4F       0.640500
     44 O8           2.8440    -9.7470   -20.4760 o          1 B4F      -0.653100
     45 C32          3.1180    -9.5700   -18.2160 cc         1 B4F      -0.244200
     46 C33          2.6440    -9.8460   -16.9770 cd         1 B4F       0.017800
     47 H1           1.5800     0.0010     2.0550 hn         1 B4F       0.213500
     48 H2           1.5810    -0.0090    -2.0530 hn         1 B4F       0.223500
     49 H3           3.8570     0.8880    -1.1450 h1         1 B4F       0.038700
     50 H4           3.8560     0.8940     1.1430 h1         1 B4F       0.035700
     51 H5           3.5220    -1.5880     2.2470 h1         1 B4F       0.053700
     52 H6           5.0910    -1.0750     1.5600 h1         1 B4F       0.053700
     53 H7           5.0920    -1.0830    -1.5470 h1         1 B4F       0.059700
     54 H8           2.3110    -2.0520    -2.3460 hc         1 B4F       0.034200
     55 H9           3.2640    -0.9220    -3.3190 hc         1 B4F       0.034200
     56 H10          5.0770    -2.5950    -3.4860 hc         1 B4F       0.021700
     57 H11          4.1240    -3.7250    -2.5130 hc         1 B4F       0.021700
     58 H12          2.3400    -3.6960    -4.2270 hc         1 B4F       0.031700
     59 H13          3.2940    -2.5670    -5.2000 hc         1 B4F       0.031700
     60 H14          5.1060    -4.2410    -5.3660 hc         1 B4F       0.027700
     61 H15          4.1530    -5.3700    -4.3930 hc         1 B4F       0.027700
     62 H16          4.7150    -6.5070    -6.7740 hn         1 B4F       0.177500
     63 H17          3.1250    -5.6850    -8.9840 h1         1 B4F       0.027700
     64 H18          2.1720    -6.8150    -8.0110 h1         1 B4F       0.027700
     65 H19          4.9370    -7.3590    -9.1520 h1         1 B4F       0.024700
     66 H20          3.9850    -8.4880    -8.1790 h1         1 B4F       0.024700
     67 H21          2.3950    -7.6670   -10.3900 hn         1 B4F       0.184500
     68 H22          4.4380   -11.1720   -12.4590 ha         1 B4F       0.160000
     69 H23          1.4510    -8.1490   -11.8540 ha         1 B4F       0.088000
     70 H24          0.2690    -8.8920   -13.8790 ha         1 B4F       0.099000
     71 H26         -0.3270   -11.7000   -13.2900 ha         1 B4F       0.120000
     72 H27         -2.3990   -12.9930   -13.1830 ha         1 B4F       0.112000
     73 H28         -4.5040   -13.2610   -15.2720 ho         1 B4F       0.397000
     74 H29         -2.5950   -13.1230   -17.4620 ha         1 B4F       0.125000
     75 H30          0.6760   -11.0450   -20.1030 ha         1 B4F       0.126000
     76 H31          4.0360    -9.0060   -18.3300 ha         1 B4F       0.115000
     77 H32          3.1550    -9.4600   -16.1030 ha         1 B4F       0.110000
@<TRIPOS>BOND
     1     1     2 2   
     2     2     3 1   
     3     2     4 1   
     4     3     6 1   
     5     3    47 1   
     6     4     5 1   
     7     4    48 1   
     8     5     6 1   
     9     5     9 1   
    10     5    49 1   
    11     6     7 1   
    12     6    50 1   
    13     7     8 1   
    14     7    51 1   
    15     7    52 1   
    16     8     9 1   
    17     9    10 1   
    18     9    53 1   
    19    10    11 1   
    20    10    54 1   
    21    10    55 1   
    22    11    12 1   
    23    11    56 1   
    24    11    57 1   
    25    12    13 1   
    26    12    58 1   
    27    12    59 1   
    28    13    14 1   
    29    13    60 1   
    30    13    61 1   
    31    14    15 2   
    32    14    16 1   
    33    16    17 1   
    34    16    62 1   
    35    17    18 1   
    36    17    63 1   
    37    17    64 1   
    38    18    19 1   
    39    18    65 1   
    40    18    66 1   
    41    19    20 1   
    42    19    67 1   
    43    20    21 2   
    44    20    22 1   
    45    22    23 ar  
    46    22    24 ar  
    47    23    27 ar  
    48    23    68 1   
    49    24    25 ar  
    50    24    69 1   
    51    25    26 ar  
    52    25    70 1   
    53    26    27 ar  
    54    26    31 1   
    55    27    28 1   
    56    28    29 1   
    57    28    30 1   
    58    31    32 1   
    59    31    41 2   
    60    32    33 ar  
    61    32    38 ar  
    62    33    34 ar  
    63    33    71 1   
    64    34    35 ar  
    65    34    72 1   
    66    35    36 1   
    67    35    37 ar  
    68    36    73 1   
    69    37    38 ar  
    70    37    74 1   
    71    38    39 1   
    72    39    40 1   
    73    40    41 1   
    74    40    42 2   
    75    41    46 1   
    76    42    43 1   
    77    42    75 1   
    78    43    44 2   
    79    43    45 1   
    80    45    46 2   
    81    45    76 1   
    82    46    77 1   
@<TRIPOS>SUBSTRUCTURE
     1 B4F         1 TEMP              0 ****  ****    0 ROOT
