@<TRIPOS>MOLECULE
molecule
   19    19     1     0     0
SMALL
bcc


@<TRIPOS>ATOM
      1 OAC          0.0000     0.0000     0.0000 o          1 B4H      -0.202000
      2 NAN          1.2190     0.0000     0.0000 no         1 B4H       0.294200
      3 OAD          1.8280     0.0000     1.0550 o          1 B4H      -0.202000
      4 CAL          1.9580    -0.0070    -1.2830 ca         1 B4H      -0.173200
      5 CAH          1.2660    -0.0130    -2.4760 ca         1 B4H      -0.017000
      6 CAG          3.3420    -0.0010    -1.2820 ca         1 B4H      -0.045000
      7 CAF          4.0410    -0.0050    -2.4750 ca         1 B4H      -0.155000
      8 CAK          3.3620    -0.0170    -3.6760 ca         1 B4H      -0.032000
      9 CAM          1.9660    -0.0180    -3.6840 ca         1 B4H      -0.147600
     10 CAJ          1.2310    -0.0250    -4.9680 c          1 B4H       0.710100
     11 OAB          0.0150    -0.0260    -4.9720 o          1 B4H      -0.563100
     12 NAI          1.9090    -0.0300    -6.1320 ne         1 B4H      -0.708100
     13 CAA          1.2640    -0.0360    -7.2570 c2         1 B4H       0.557100
     14 H1           0.1830    -0.0140    -2.4750 ha         1 B4H       0.187000
     15 H2           3.8800     0.0090    -0.3420 ha         1 B4H       0.167000
     16 H3           5.1240    -0.0020    -2.4670 ha         1 B4H       0.152000
     17 H4           3.9110    -0.0210    -4.6100 ha         1 B4H       0.166000
     18 H6           1.8090    -0.0410    -8.1930 h4         1 B4H       0.005800
     19 H7           0.1810    -0.0370    -7.2600 h4         1 B4H       0.005800
@<TRIPOS>BOND
     1     1     2 1
     2     6     7 ar
     3     6     4 ar
     4     7     8 ar
     5     2     4 1
     6     2     3 1
     7     4     5 ar
     8     8     9 ar
     9     5     9 ar
    10     9    10 1
    11    10    11 2
    12    10    12 1
    13    12    13 2
    14     5    14 1
    15     6    15 1
    16     7    16 1
    17     8    17 1
    18    13    18 1
    19    13    19 1
@<TRIPOS>SUBSTRUCTURE
     1 B4H         1 TEMP              0 ****  ****    0 ROOT
