@<TRIPOS>MOLECULE
molecule
   59    62     1     0     0
SMALL
bcc


@<TRIPOS>ATOM
      1 C1           0.0000     0.0000     0.0000 ca         1 B4J       0.106100
      2 C2           1.3940     0.0000     0.0000 ca         1 B4J       0.139100
      3 C3           2.0910     0.0000     1.2000 ca         1 B4J      -0.202000
      4 C4           1.4090    -0.0000     2.3970 ca         1 B4J      -0.103000
      5 C5           0.0120    -0.0010     2.4040 ca         1 B4J      -0.150600
      6 C6          -0.6900    -0.0000     1.1970 ca         1 B4J      -0.130000
      7 C7          -0.7210    -0.0010     3.6860 c          1 B4J       0.678700
      8 N8          -0.0420    -0.0030     4.8500 ns         1 B4J      -0.584900
      9 C9          -0.7690    -0.0030     6.1220 c3         1 B4J       0.163300
     10 C10          0.2150    -0.0030     7.2640 ca         1 B4J      -0.127300
     11 C11          0.6660     1.1950     7.7870 ca         1 B4J      -0.085000
     12 C12          1.5690     1.2040     8.8350 ca         1 B4J      -0.138000
     13 C13          2.0280     0.0160     9.3640 ca         1 B4J      -0.095000
     14 C14          1.5780    -1.1980     8.8410 ca         1 B4J      -0.152600
     15 C15          0.6610    -1.2000     7.7880 ca         1 B4J      -0.048000
     16 C16          2.0640    -2.4760     9.4030 c          1 B4J       0.673700
     17 O17          1.6700    -3.5310     8.9450 o          1 B4J      -0.585100
     18 O18         -0.6810     0.0060    -1.1770 os         1 B4J      -0.313900
     19 C19         -2.1080     0.0120    -1.1020 c3         1 B4J       0.124700
     20 O20          2.0710     0.0010    -1.1780 os         1 B4J      -0.307900
     21 C21          3.4980     0.0000    -1.1050 c3         1 B4J       0.125700
     22 O22         -1.9370    -0.0010     3.6910 o          1 B4J      -0.613100
     23 C23          4.5830    -4.9990    12.3150 cc         1 B4J       0.403600
     24 C24          3.9810    -5.9700    11.6030 cd         1 B4J      -0.211700
     25 C25          4.1860    -7.4490    11.8270 c3         1 B4J       0.255100
     26 N26          4.8120    -7.6370    13.1460 n3         1 B4J      -0.729600
     27 C27          5.9950    -6.7780    13.2940 c3         1 B4J       0.155800
     28 C28          5.5530    -5.3180    13.4430 c3         1 B4J      -0.094700
     29 N29          2.9450    -2.4710    10.4220 ns         1 B4J      -0.513400
     30 C30          3.4030    -3.6710    10.9510 cc         1 B4J       0.538300
     31 S31          2.9440    -5.2210    10.3980 ss         1 B4J      -0.069300
     32 N32          4.2460    -3.7780    11.9270 nd         1 B4J      -0.741000
     33 H1           3.1740     0.0000     1.1950 ha         1 B4J       0.143000
     34 H2           1.9560    -0.0010     3.3320 ha         1 B4J       0.126000
     35 H3          -1.7730    -0.0010     1.1990 ha         1 B4J       0.167000
     36 H4           0.9590    -0.0210     4.8460 hn         1 B4J       0.318500
     37 H5          -1.3910    -0.8880     6.1820 h1         1 B4J       0.063200
     38 H6          -1.3920     0.8810     6.1820 h1         1 B4J       0.063200
     39 H7           0.3090     2.1320     7.3750 ha         1 B4J       0.142000
     40 H8           1.9180     2.1460     9.2400 ha         1 B4J       0.140000
     41 H9           2.7370     0.0240    10.1830 ha         1 B4J       0.131000
     42 H10          0.3080    -2.1380     7.3770 ha         1 B4J       0.165000
     43 H11         -2.5230     0.0170    -2.1030 h1         1 B4J       0.044367
     44 H12         -2.4460    -0.8740    -0.5770 h1         1 B4J       0.044367
     45 H13         -2.4380     0.8960    -0.5700 h1         1 B4J       0.044367
     46 H14          3.9110     0.0010    -2.1070 h1         1 B4J       0.042367
     47 H15          3.8330     0.8850    -0.5760 h1         1 B4J       0.042367
     48 H16          3.8330    -0.8840    -0.5770 h1         1 B4J       0.042367
     49 H17          4.8350    -7.8470    11.0560 h1         1 B4J       0.045700
     50 H18          3.2290    -7.9560    11.8030 h1         1 B4J       0.045700
     51 H20          6.5110    -7.0680    14.2010 h1         1 B4J       0.042700
     52 H21          6.5860    -6.8600    12.3900 h1         1 B4J       0.042700
     53 H22          6.4250    -4.6840    13.3330 hc         1 B4J       0.068200
     54 H23          5.0280    -5.2140    14.3850 hc         1 B4J       0.068200
     55 H24          3.2570    -1.6020    10.8100 hn         1 B4J       0.344500
     56 H25          4.2820    -9.6640    13.1920 h1         1 B4J       0.033367
     57 H26          5.4910    -9.1820    14.3890 h1         1 B4J       0.033367
     58 H27          5.9450    -9.3390    12.6870 h1         1 B4J       0.033367
     59 C33          5.1550    -9.0480    13.3680 c3         1 B4J       0.153100
@<TRIPOS>BOND
     1    21    20 1
     2     3     4 ar
     3     3     2 ar
     4    20     2 1
     5    13    12 ar
     6    13    14 ar
     7    12    11 ar
     8     4     5 ar
     9     2     1 ar
    10    17    16 2
    11    16    14 1
    12    16    29 1
    13    14    15 ar
    14    31    30 1
    15    31    24 1
    16    29    30 1
    17    30    32 2
    18    24    25 1
    19    24    23 2
    20    25    26 1
    21    22     7 2
    22    11    10 ar
    23     5     7 1
    24     5     6 ar
    25    32    23 1
    26    23    28 1
    27     1     6 ar
    28     1    18 1
    29    28    27 1
    30     7     8 1
    31    15    10 ar
    32    18    19 1
    33    10     9 1
    34    26    27 1
    35    26    59 1
    36     8     9 1
    37     3    33 1
    38     4    34 1
    39     6    35 1
    40     8    36 1
    41     9    37 1
    42     9    38 1
    43    11    39 1
    44    12    40 1
    45    13    41 1
    46    15    42 1
    47    19    43 1
    48    19    44 1
    49    19    45 1
    50    21    46 1
    51    21    47 1
    52    21    48 1
    53    25    49 1
    54    25    50 1
    55    27    51 1
    56    27    52 1
    57    28    53 1
    58    28    54 1
    59    29    55 1
    60    59    56 1
    61    59    57 1
    62    59    58 1
@<TRIPOS>SUBSTRUCTURE
     1 B4J         1 TEMP              0 ****  ****    0 ROOT
