@<TRIPOS>MOLECULE
B4J
   59    62     1     0     0
SMALL
bcc


@<TRIPOS>ATOM
      1 C1           0.0000     0.0000     0.0000 ca         1 B4J       0.107100
      2 C2           1.3940     0.0000     0.0000 ca         1 B4J       0.141100
      3 C3           2.0910     0.0000     1.2000 ca         1 B4J      -0.189000
      4 C4           1.4090    -0.0000     2.3970 ca         1 B4J      -0.081000
      5 C5           0.0120    -0.0010     2.4040 ca         1 B4J      -0.157600
      6 C6          -0.6900    -0.0000     1.1970 ca         1 B4J      -0.112000
      7 C7          -0.7210    -0.0010     3.6860 c          1 B4J       0.602700
      8 N8          -0.0420    -0.0030     4.8500 ns         1 B4J      -0.203900
      9 C9          -0.7690    -0.0030     6.1220 c3         1 B4J       0.114300
     10 C10          0.2150    -0.0030     7.2640 ca         1 B4J      -0.137300
     11 C11          0.6660     1.1950     7.7870 ca         1 B4J      -0.056000
     12 C12          1.5690     1.2040     8.8350 ca         1 B4J      -0.108000
     13 C13          2.0280     0.0160     9.3640 ca         1 B4J      -0.075000
     14 C14          1.5780    -1.1980     8.8410 ca         1 B4J      -0.163600
     15 C15          0.6610    -1.2000     7.7880 ca         1 B4J      -0.014000
     16 C16          2.0640    -2.4760     9.4030 c          1 B4J       0.569700
     17 O17          1.6700    -3.5310     8.9450 o          1 B4J      -0.607100
     18 O18         -0.6810     0.0060    -1.1770 os         1 B4J      -0.294900
     19 C19         -2.1080     0.0120    -1.1020 c3         1 B4J       0.239700
     20 O20          2.0710     0.0010    -1.1780 os         1 B4J      -0.289900
     21 C21          3.4980     0.0000    -1.1050 c3         1 B4J       0.241700
     22 O22         -1.9370    -0.0010     3.6910 o          1 B4J      -0.655100
     23 C23          4.5830    -4.9990    12.3150 cc         1 B4J       0.349600
     24 C24          3.9810    -5.9700    11.6030 cd         1 B4J      -0.156700
     25 C25          4.1860    -7.4490    11.8270 c3         1 B4J       0.271100
     26 N26          4.8120    -7.6370    13.1460 n3         1 B4J      -0.548600
     27 C27          5.9950    -6.7780    13.2940 c3         1 B4J       0.144800
     28 C28          5.5530    -5.3180    13.4430 c3         1 B4J      -0.035700
     29 N29          2.9450    -2.4710    10.4220 ns         1 B4J      -0.057400
     30 C30          3.4030    -3.6710    10.9510 cd         1 B4J       0.397300
     31 S31          2.9440    -5.2210    10.3980 ss         1 B4J      -0.206300
     32 N32          4.2460    -3.7780    11.9270 nc         1 B4J      -0.611000
     33 H1           3.1740     0.0000     1.1950 ha         1 B4J       0.124000
     34 H2           1.9560    -0.0010     3.3320 ha         1 B4J       0.101000
     35 H3          -1.7730    -0.0010     1.1990 ha         1 B4J       0.146000
     36 H4           0.9590    -0.0210     4.8460 hn         1 B4J       0.183500
     37 H5          -1.3910    -0.8880     6.1820 h1         1 B4J       0.032200
     38 H6          -1.3920     0.8810     6.1820 h1         1 B4J       0.032200
     39 H7           0.3090     2.1320     7.3750 ha         1 B4J       0.111000
     40 H8           1.9180     2.1460     9.2400 ha         1 B4J       0.110000
     41 H9           2.7370     0.0240    10.1830 ha         1 B4J       0.105000
     42 H10          0.3080    -2.1380     7.3770 ha         1 B4J       0.135000
     43 H11         -2.5230     0.0170    -2.1030 h1         1 B4J       0.000033
     44 H12         -2.4460    -0.8740    -0.5770 h1         1 B4J       0.000033
     45 H13         -2.4380     0.8960    -0.5700 h1         1 B4J       0.000033
     46 H14          3.9110     0.0010    -2.1070 h1         1 B4J      -0.001967
     47 H15          3.8330     0.8850    -0.5760 h1         1 B4J      -0.001967
     48 H16          3.8330    -0.8840    -0.5770 h1         1 B4J      -0.001967
     49 H17          4.8350    -7.8470    11.0560 h1         1 B4J       0.017700
     50 H18          3.2290    -7.9560    11.8030 h1         1 B4J       0.017700
     51 H20          6.5110    -7.0680    14.2010 h1         1 B4J       0.016700
     52 H21          6.5860    -6.8600    12.3900 h1         1 B4J       0.016700
     53 H22          6.4250    -4.6840    13.3330 hc         1 B4J       0.033200
     54 H23          5.0280    -5.2140    14.3850 hc         1 B4J       0.033200
     55 H24          3.2570    -1.6020    10.8100 hn         1 B4J       0.181500
     56 H25          4.2820    -9.6640    13.1920 h1         1 B4J       0.001033
     57 H26          5.4910    -9.1820    14.3890 h1         1 B4J       0.001033
     58 H27          5.9450    -9.3390    12.6870 h1         1 B4J       0.001033
     59 C33          5.1550    -9.0480    13.3680 c3         1 B4J       0.189100
@<TRIPOS>BOND
     1     1     2 ar  
     2     1     6 ar  
     3     1    18 1   
     4     2     3 ar  
     5     2    20 1   
     6     3     4 ar  
     7     3    33 1   
     8     4     5 ar  
     9     4    34 1   
    10     5     6 ar  
    11     5     7 1   
    12     6    35 1   
    13     7     8 1   
    14     7    22 2   
    15     8     9 1   
    16     8    36 1   
    17     9    10 1   
    18     9    37 1   
    19     9    38 1   
    20    10    11 ar  
    21    10    15 ar  
    22    11    12 ar  
    23    11    39 1   
    24    12    13 ar  
    25    12    40 1   
    26    13    14 ar  
    27    13    41 1   
    28    14    15 ar  
    29    14    16 1   
    30    15    42 1   
    31    16    17 2   
    32    16    29 1   
    33    18    19 1   
    34    19    43 1   
    35    19    44 1   
    36    19    45 1   
    37    20    21 1   
    38    21    46 1   
    39    21    47 1   
    40    21    48 1   
    41    23    24 2   
    42    23    28 1   
    43    23    32 1   
    44    24    25 1   
    45    24    31 1   
    46    25    26 1   
    47    25    49 1   
    48    25    50 1   
    49    26    27 1   
    50    26    59 1   
    51    27    28 1   
    52    27    51 1   
    53    27    52 1   
    54    28    53 1   
    55    28    54 1   
    56    29    30 1   
    57    29    55 1   
    58    30    31 1   
    59    30    32 2   
    60    56    59 1   
    61    57    59 1   
    62    58    59 1   
@<TRIPOS>SUBSTRUCTURE
     1 B4J         1 TEMP              0 ****  ****    0 ROOT
