@<TRIPOS>MOLECULE
molecule
   33    35     1     0     0
SMALL
bcc


@<TRIPOS>ATOM
      1 C10          0.0000     0.0000     0.0000 cp         1 B4K       0.543800
      2 C13          1.3400     0.0010     2.3700 ca         1 B4K      -0.385200
      3 C15         -2.1160     0.1170    -1.3110 ca         1 B4K      -0.106000
      4 C17         -2.0910     0.0080    -3.7060 ca         1 B4K       0.105100
      5 C21         -0.0210    -0.0980    -2.4910 ca         1 B4K      -0.111000
      6 C01          2.9760     0.0020     7.1210 c3         1 B4K      -0.168100
      7 O03          4.3380     0.0030     5.1940 o          1 B4K      -0.545100
      8 N04          2.1570     0.0020     4.7870 ns         1 B4K      -0.464400
      9 C05          2.3720     0.0010     3.4050 cc         1 B4K       0.440500
     10 N06          3.5330     0.0010     2.8040 nd         1 B4K      -0.475100
     11 N07          3.3540     0.0010     1.4160 na         1 B4K      -0.145800
     12 C08          2.0150     0.0000     1.1330 ca         1 B4K       0.504800
     13 N09          1.3250     0.0000     0.0000 nb         1 B4K      -0.725000
     14 C11         -0.7260     0.0010     1.1960 ca         1 B4K      -0.291300
     15 C12         -0.0610     0.0000     2.3900 ca         1 B4K      -0.020000
     16 C14         -0.7260     0.0070    -1.2920 cp         1 B4K      -0.150500
     17 C16         -2.7910     0.1180    -2.5140 ca         1 B4K      -0.160000
     18 C19         -0.7030    -0.1040    -3.6930 ca         1 B4K       0.082100
     19 O20         -0.0180    -0.2120    -4.8630 oh         1 B4K      -0.507100
     20 H1          -2.6650     0.2030    -0.3810 ha         1 B4K       0.137000
     21 H2           1.0590    -0.1850    -2.4790 ha         1 B4K       0.167000
     22 H3           2.4090    -0.8790     7.3990 hc         1 B4K       0.064367
     23 H4           2.4160     0.8900     7.3890 hc         1 B4K       0.064367
     24 H5           3.9240     0.0010     7.6450 hc         1 B4K       0.064367
     25 H6           1.2240     0.0160     5.1480 hn         1 B4K       0.332500
     26 H8          -1.8100     0.0010     1.1750 ha         1 B4K       0.144000
     27 H9          -0.6030     0.0010     3.3280 ha         1 B4K       0.132000
     28 H10         -3.8710     0.2030    -2.5280 ha         1 B4K       0.144000
     29 H11         -3.0510     0.8780    -5.0890 ho         1 B4K       0.425000
     30 H12          0.3090    -1.0910    -4.9550 ho         1 B4K       0.423000
     31 H7           4.0900     0.0010     0.7380 hn         1 B4K       0.345700
     32 O18         -2.7620     0.0030    -4.8880 oh         1 B4K      -0.510100
     33 C02          3.2070     0.0020     5.6320 c          1 B4K       0.646100
@<TRIPOS>BOND
     1    32     4 1
     2    19    18 1
     3     4    18 ar
     4     4    17 ar
     5    18     5 ar
     6    17     3 ar
     7     5    16 ar
     8     3    16 ar
     9    16     1 1
    10     1    14 ar
    11     1    13 ar
    12    14    15 ar
    13    13    12 ar
    14    15     2 ar
    15    12     2 ar
    16    12    11 1
    17     2     9 1
    18     7    33 2
    19    11    10 1
    20     9    10 2
    21     9     8 1
    22    33     8 1
    23    33     6 1
    24     3    20 1
    25     5    21 1
    26     6    22 1
    27     6    23 1
    28     6    24 1
    29     8    25 1
    30    14    26 1
    31    15    27 1
    32    17    28 1
    33    32    29 1
    34    19    30 1
    35    11    31 1
@<TRIPOS>SUBSTRUCTURE
     1 B4K         1 TEMP              0 ****  ****    0 ROOT
