@<TRIPOS>MOLECULE
B4K
   33    35     1     0     0
SMALL
bcc


@<TRIPOS>ATOM
      1 C10          0.0000     0.0000     0.0000 cp         1 B4K       0.490800
      2 C13          1.3400     0.0010     2.3700 ca         1 B4K      -0.396200
      3 C15         -2.1160     0.1170    -1.3110 ca         1 B4K      -0.087000
      4 C17         -2.0910     0.0080    -3.7060 ca         1 B4K       0.111100
      5 C21         -0.0210    -0.0980    -2.4910 ca         1 B4K      -0.097000
      6 C01          2.9760     0.0020     7.1210 c3         1 B4K      -0.065100
      7 O03          4.3380     0.0030     5.1940 o          1 B4K      -0.577100
      8 N04          2.1570     0.0020     4.7870 ns         1 B4K      -0.015400
      9 C05          2.3720     0.0010     3.4050 cc         1 B4K       0.321500
     10 N06          3.5330     0.0010     2.8040 nd         1 B4K      -0.610100
     11 N07          3.3540     0.0010     1.4160 na         1 B4K       0.325200
     12 C08          2.0150     0.0000     1.1330 ca         1 B4K       0.289800
     13 N09          1.3250     0.0000     0.0000 nb         1 B4K      -0.588000
     14 C11         -0.7260     0.0010     1.1960 ca         1 B4K      -0.269300
     15 C12         -0.0610     0.0000     2.3900 ca         1 B4K       0.017000
     16 C14         -0.7260     0.0070    -1.2920 cp         1 B4K      -0.158500
     17 C16         -2.7910     0.1180    -2.5140 ca         1 B4K      -0.139000
     18 C19         -0.7030    -0.1040    -3.6930 ca         1 B4K       0.093100
     19 O20         -0.0180    -0.2120    -4.8630 oh         1 B4K      -0.488100
     20 H1          -2.6650     0.2030    -0.3810 ha         1 B4K       0.112000
     21 H2           1.0590    -0.1850    -2.4790 ha         1 B4K       0.134000
     22 H3           2.4090    -0.8790     7.3990 hc         1 B4K       0.023367
     23 H4           2.4160     0.8900     7.3890 hc         1 B4K       0.023367
     24 H5           3.9240     0.0010     7.6450 hc         1 B4K       0.023367
     25 H6           1.2240     0.0160     5.1480 hn         1 B4K       0.167500
     26 H8          -1.8100     0.0010     1.1750 ha         1 B4K       0.126000
     27 H9          -0.6030     0.0010     3.3280 ha         1 B4K       0.099000
     28 H10         -3.8710     0.2030    -2.5280 ha         1 B4K       0.115000
     29 H11         -3.0510     0.8780    -5.0890 ho         1 B4K       0.406000
     30 H12          0.3090    -1.0910    -4.9550 ho         1 B4K       0.405000
     31 H7           4.0900     0.0010     0.7380 hn         1 B4K       0.160700
     32 O18         -2.7620     0.0030    -4.8880 oh         1 B4K      -0.490100
     33 C02          3.2070     0.0020     5.6320 c          1 B4K       0.537100
@<TRIPOS>BOND
     1     1    13 ar  
     2     1    14 ar  
     3     1    16 1   
     4     2     9 1   
     5     2    12 ar  
     6     2    15 ar  
     7     3    16 ar  
     8     3    17 ar  
     9     3    20 1   
    10     4    17 ar  
    11     4    18 ar  
    12     4    32 1   
    13     5    16 ar  
    14     5    18 ar  
    15     5    21 1   
    16     6    22 1   
    17     6    23 1   
    18     6    24 1   
    19     6    33 1   
    20     7    33 2   
    21     8     9 1   
    22     8    25 1   
    23     8    33 1   
    24     9    10 2   
    25    10    11 1   
    26    11    12 1   
    27    11    31 1   
    28    12    13 ar  
    29    14    15 ar  
    30    14    26 1   
    31    15    27 1   
    32    17    28 1   
    33    18    19 1   
    34    19    30 1   
    35    29    32 1   
@<TRIPOS>SUBSTRUCTURE
     1 B4K         1 TEMP              0 ****  ****    0 ROOT
