@<TRIPOS>MOLECULE
B4M
    5     4     1     0     0
SMALL
bcc


@<TRIPOS>ATOM
      1 C1          0.0210    0.0500    0.0300 c3        1 B4M      0.055500
      2 BR2         1.9260   -0.0170   -0.0080 br        1 B4M     -0.062400
      3 BR1        -0.6520   -0.0110    1.8130 br        1 B4M     -0.062400
      4 BR3        -0.6510    1.5570   -0.9260 br        1 B4M     -0.062400
      5 H1         -0.3500   -0.8600   -0.4910 h3        1 B4M      0.132700
@<TRIPOS>BOND
     1    1    2 1   
     2    1    3 1   
     3    1    4 1   
     4    1    5 1   
@<TRIPOS>SUBSTRUCTURE
     1 B4M         1 TEMP              0 ****  ****    0 ROOT
