@<TRIPOS>MOLECULE
B4N
   31    32     1     0     0
SMALL
bcc


@<TRIPOS>ATOM
      1 CAG          0.0000     0.0000     0.0000 ca         1 B4N      -0.169000
      2 CAK          1.3820     0.0000     0.0000 ca         1 B4N       0.002250
      3 CAS          2.0740     0.0000     1.1970 ca         1 B4N      -0.521200
      4 NAU          3.5530    -0.0000     1.1950 no         1 B4N       1.067200
      5 OAD          4.1610     0.0010     0.1390 o          1 B4N      -0.481750
      6 OAA          4.1640    -0.0000     2.2490 o          1 B4N      -0.481750
      7 CAL          1.3850    -0.0000     2.3960 ca         1 B4N       0.002250
      8 CAH          0.0030    -0.0020     2.4010 ca         1 B4N      -0.169000
      9 CAQ         -0.6930    -0.0000     1.2010 ca         1 B4N       0.319600
     10 OAO         -2.0520     0.0010     1.2040 os         1 B4N      -0.383000
     11 PAW         -2.7070    -1.4710     1.2040 p5         1 B4N       0.910800
     12 OAF         -2.3420    -2.2210    -0.1740 o          1 B4N      -0.631000
     13 OAC         -2.1750    -2.2480     2.3440 o          1 B4N      -0.631000
     14 OAP         -4.3070    -1.3450     1.3380 os         1 B4N      -0.383000
     15 CAR         -4.9470    -2.5390     1.4550 ca         1 B4N       0.319600
     16 CAI         -5.1680    -3.0880     2.7090 ca         1 B4N      -0.169000
     17 CAM         -5.8190    -4.3000     2.8270 ca         1 B4N       0.002250
     18 CAT         -6.2500    -4.9660     1.6940 ca         1 B4N      -0.521200
     19 NAV         -6.9470    -6.2660     1.8210 no         1 B4N       1.067200
     20 OAE         -7.1410    -6.7470     2.9240 o          1 B4N      -0.481750
     21 OAB         -7.3260    -6.8540     0.8250 o          1 B4N      -0.481750
     22 CAN         -6.0300    -4.4220     0.4420 ca         1 B4N       0.002250
     23 CAJ         -5.3850    -3.2060     0.3210 ca         1 B4N      -0.169000
     24 HAG         -0.5410     0.0470    -0.9370 ha         1 B4N       0.129000
     25 HAK          1.9230     0.0060    -0.9380 ha         1 B4N       0.115500
     26 HAL          1.9290     0.0040     3.3330 ha         1 B4N       0.115500
     27 HAH         -0.5350     0.0470     3.3390 ha         1 B4N       0.129000
     28 HAI         -4.8310    -2.5650     3.5960 ha         1 B4N       0.129000
     29 HAM         -5.9920    -4.7290     3.8060 ha         1 B4N       0.115500
     30 HAN         -6.3700    -4.9460    -0.4430 ha         1 B4N       0.115500
     31 HAJ         -5.2120    -2.7790    -0.6600 ha         1 B4N       0.129000
@<TRIPOS>BOND
     1     1     2 ar  
     2     1     9 ar  
     3     1    24 1   
     4     2     3 ar  
     5     2    25 1   
     6     3     4 1   
     7     3     7 ar  
     8     4     5 1   
     9     4     6 1   
    10     7     8 ar  
    11     7    26 1   
    12     8     9 ar  
    13     8    27 1   
    14     9    10 1   
    15    10    11 1   
    16    11    12 1   
    17    11    13 1   
    18    11    14 1   
    19    14    15 1   
    20    15    16 ar  
    21    15    23 ar  
    22    16    17 ar  
    23    16    28 1   
    24    17    18 ar  
    25    17    29 1   
    26    18    19 1   
    27    18    22 ar  
    28    19    20 1   
    29    19    21 1   
    30    22    23 ar  
    31    22    30 1   
    32    23    31 1   
@<TRIPOS>SUBSTRUCTURE
     1 B4N         1 TEMP              0 ****  ****    0 ROOT
