@<TRIPOS>MOLECULE
molecule
   31    32     1     0     0
SMALL
bcc


@<TRIPOS>ATOM
      1 CAG          0.0000     0.0000     0.0000 ca         1 B4N      -0.148000
      2 CAK          1.3820     0.0000     0.0000 ca         1 B4N      -0.062000
      3 CAS          2.0740     0.0000     1.1970 ca         1 B4N      -0.191200
      4 NAU          3.5530    -0.0000     1.1950 no         1 B4N       0.302200
      5 OAD          4.1610     0.0010     0.1390 o          1 B4N      -0.232750
      6 OAA          4.1640    -0.0000     2.2490 o          1 B4N      -0.232750
      7 CAL          1.3850    -0.0000     2.3960 ca         1 B4N      -0.062000
      8 CAH          0.0030    -0.0020     2.4010 ca         1 B4N      -0.148000
      9 CAQ         -0.6930    -0.0000     1.2010 ca         1 B4N       0.235600
     10 OAO         -2.0520     0.0010     1.2040 os         1 B4N      -0.461500
     11 PAW         -2.7070    -1.4710     1.2040 p5         1 B4N       1.277800
     12 OAF         -2.3420    -2.2210    -0.1740 o          1 B4N      -0.774000
     13 OAC         -2.1750    -2.2480     2.3440 o          1 B4N      -0.774000
     14 OAP         -4.3070    -1.3450     1.3380 os         1 B4N      -0.461500
     15 CAR         -4.9470    -2.5390     1.4550 ca         1 B4N       0.235600
     16 CAI         -5.1680    -3.0880     2.7090 ca         1 B4N      -0.148000
     17 CAM         -5.8190    -4.3000     2.8270 ca         1 B4N      -0.062000
     18 CAT         -6.2500    -4.9660     1.6940 ca         1 B4N      -0.191200
     19 NAV         -6.9470    -6.2660     1.8210 no         1 B4N       0.302200
     20 OAE         -7.1410    -6.7470     2.9240 o          1 B4N      -0.232750
     21 OAB         -7.3260    -6.8540     0.8250 o          1 B4N      -0.232750
     22 CAN         -6.0300    -4.4220     0.4420 ca         1 B4N      -0.062000
     23 CAJ         -5.3850    -3.2060     0.3210 ca         1 B4N      -0.148000
     24 HAG         -0.5410     0.0470    -0.9370 ha         1 B4N       0.164000
     25 HAK          1.9230     0.0060    -0.9380 ha         1 B4N       0.154000
     26 HAL          1.9290     0.0040     3.3330 ha         1 B4N       0.154000
     27 HAH         -0.5350     0.0470     3.3390 ha         1 B4N       0.164000
     28 HAI         -4.8310    -2.5650     3.5960 ha         1 B4N       0.164000
     29 HAM         -5.9920    -4.7290     3.8060 ha         1 B4N       0.154000
     30 HAN         -6.3700    -4.9460    -0.4430 ha         1 B4N       0.154000
     31 HAJ         -5.2120    -2.7790    -0.6600 ha         1 B4N       0.164000
@<TRIPOS>BOND
     1     1     2 ar
     2     1     9 ar
     3     2     3 ar
     4     3     4 1
     5     3     7 ar
     6     4     5 1
     7     4     6 1
     8     7     8 ar
     9     8     9 ar
    10     9    10 1
    11    10    11 1
    12    11    12 1
    13    11    13 1
    14    11    14 1
    15    14    15 1
    16    15    16 ar
    17    15    23 ar
    18    16    17 ar
    19    17    18 ar
    20    18    19 1
    21    18    22 ar
    22    19    20 1
    23    19    21 1
    24    22    23 ar
    25     1    24 1
    26     2    25 1
    27     7    26 1
    28     8    27 1
    29    16    28 1
    30    17    29 1
    31    22    30 1
    32    23    31 1
@<TRIPOS>SUBSTRUCTURE
     1 B4N         1 TEMP              0 ****  ****    0 ROOT
