@<TRIPOS>MOLECULE
molecule
   55    58     1     0     0
SMALL
bcc


@<TRIPOS>ATOM
      1 C1           0.0000     0.0000     0.0000 c3         1 B4Q      -0.047100
      2 N1          -5.6020    -2.1910    -8.7740 na         1 B4Q      -0.263300
      3 C2           1.5080     0.0000     0.0000 ca         1 B4Q      -0.065300
      4 N2          -5.1490    -0.0740    -9.0440 nc         1 B4Q      -0.606100
      5 C3           2.1980     0.0000     1.1950 ca         1 B4Q      -0.129000
      6 C4           3.5820     0.0000     1.1960 ca         1 B4Q      -0.125000
      7 C5           4.2800     0.0000     0.0020 ca         1 B4Q      -0.135000
      8 C6           3.5980     0.0010    -1.1980 ca         1 B4Q      -0.113000
      9 C7           2.2060    -0.0050    -1.2060 cp         1 B4Q      -0.040000
     10 C8           1.4680    -0.0120    -2.4940 cp         1 B4Q      -0.034000
     11 C9           1.4980    -1.1410    -3.3110 ca         1 B4Q      -0.114000
     12 C10          0.8110    -1.1420    -4.5070 ca         1 B4Q      -0.112000
     13 C11          0.0920    -0.0250    -4.8960 ca         1 B4Q      -0.084300
     14 C12         -0.6560    -0.0330    -6.2030 c3         1 B4Q       0.207100
     15 C13         -2.7820    -0.5520    -7.2400 c3         1 B4Q       0.159800
     16 C14         -4.1940    -1.0770    -6.9720 c3         1 B4Q      -0.080700
     17 C15         -4.9750    -1.0970    -8.2600 cd         1 B4Q       0.420800
     18 C16         -6.1960    -1.8050    -9.9580 ca         1 B4Q      -0.094200
     19 C17         -6.9560    -2.4600   -10.9180 ca         1 B4Q      -0.128000
     20 C18         -7.4130    -1.7670   -12.0180 ca         1 B4Q      -0.114000
     21 C19         -7.1170    -0.4200   -12.1730 ca         1 B4Q      -0.146000
     22 C20         -6.3700     0.2410   -11.2400 ca         1 B4Q      -0.070000
     23 C21         -5.8980    -0.4400   -10.1160 ca         1 B4Q       0.093400
     24 C22          0.0580     1.0970    -4.0880 ca         1 B4Q      -0.126000
     25 C23          0.7390     1.1070    -2.8870 ca         1 B4Q      -0.071300
     26 C24          0.7000     2.3300    -2.0080 c3         1 B4Q      -0.053800
     27 C           -0.5100    -1.4390    -0.1000 c3         1 B4Q      -0.086100
     28 N           -2.0210    -0.5310    -5.9850 n7         1 B4Q      -0.822200
     29 H1          -0.3610     0.4480     0.9180 hc         1 B4Q       0.052200
     30 H2          -0.3610     0.5710    -0.8470 hc         1 B4Q       0.052200
     31 H5           1.6560     0.0000     2.1330 ha         1 B4Q       0.132000
     32 H6           4.1200     0.0000     2.1360 ha         1 B4Q       0.128000
     33 H7           5.3630     0.0030     0.0090 ha         1 B4Q       0.130000
     34 H8           4.1460    -0.0010    -2.1330 ha         1 B4Q       0.135000
     35 H9           2.0610    -2.0160    -3.0070 ha         1 B4Q       0.136000
     36 H10          0.8340    -2.0190    -5.1430 ha         1 B4Q       0.135000
     37 H11         -0.1450    -0.6770    -6.9080 h1         1 B4Q       0.040200
     38 H12         -0.7000     0.9750    -6.6000 h1         1 B4Q       0.040200
     39 H13         -2.2850    -1.2000    -7.9520 h1         1 B4Q       0.048200
     40 H14         -2.8400     0.4510    -7.6440 h1         1 B4Q       0.048200
     41 H15         -4.1360    -2.0810    -6.5690 hc         1 B4Q       0.064700
     42 H16         -4.6900    -0.4290    -6.2590 hc         1 B4Q       0.064700
     43 H17         -7.1900    -3.5110   -10.8020 ha         1 B4Q       0.126000
     44 H18         -8.0060    -2.2770   -12.7670 ha         1 B4Q       0.132000
     45 H19         -7.4820     0.1130   -13.0430 ha         1 B4Q       0.132000
     46 H20         -6.1450     1.2930   -11.3710 ha         1 B4Q       0.141000
     47 H21         -0.5080     1.9680    -4.3960 ha         1 B4Q       0.130000
     48 H22         -0.2830     2.4240    -1.5620 hc         1 B4Q       0.047700
     49 H23          1.4440     2.2370    -1.2260 hc         1 B4Q       0.047700
     50 H24          0.9110     3.2100    -2.6040 hc         1 B4Q       0.047700
     51 H25          0.2960    -2.0860    -0.4280 hc         1 B4Q       0.036367
     52 H26         -0.8620    -1.7660     0.8710 hc         1 B4Q       0.036367
     53 H27         -1.3230    -1.4860    -0.8140 hc         1 B4Q       0.036367
     54 H28         -2.4880     0.0540    -5.3210 hn         1 B4Q       0.355800
     55 H3          -5.6240    -3.1060    -8.3690 hn         1 B4Q       0.303700
@<TRIPOS>BOND
     1    27     1 1
     2    22    21 ar
     3    22    23 ar
     4     4    23 1
     5     4    17 2
     6    21    20 ar
     7    23    18 ar
     8    16    17 1
     9    16    15 1
    10    17     2 1
    11     1     3 1
    12    20    19 ar
    13    18     2 1
    14    18    19 ar
    15    15    28 1
    16    28    14 1
    17     3     5 ar
    18     3     9 ar
    19     5     6 ar
    20    14    13 1
    21    24    13 ar
    22    24    25 ar
    23    13    12 ar
    24    26    25 1
    25    25    10 ar
    26    12    11 ar
    27    10    11 ar
    28    10     9 1
    29     9     8 ar
    30     6     7 ar
    31     8     7 ar
    32     1    29 1
    33     1    30 1
    34     2    55 1
    35     5    31 1
    36     6    32 1
    37     7    33 1
    38     8    34 1
    39    11    35 1
    40    12    36 1
    41    14    37 1
    42    14    38 1
    43    15    39 1
    44    15    40 1
    45    16    41 1
    46    16    42 1
    47    19    43 1
    48    20    44 1
    49    21    45 1
    50    22    46 1
    51    24    47 1
    52    26    48 1
    53    26    49 1
    54    26    50 1
    55    27    51 1
    56    27    52 1
    57    27    53 1
    58    28    54 1
@<TRIPOS>SUBSTRUCTURE
     1 B4Q         1 TEMP              0 ****  ****    0 ROOT
