@<TRIPOS>MOLECULE
molecule
   31    32     1     0     0
SMALL
bcc


@<TRIPOS>ATOM
      1 O2           0.0000     0.0000     0.0000 o          1 B4S      -0.517800
      2 S            1.4210     0.0000     0.0000 sy         1 B4S       1.226200
      3 O1           2.1980     0.0000     1.1900 o          1 B4S      -0.517800
      4 N            1.8880    -1.3340    -0.8640 nz         1 B4S      -0.806500
      5 C10          1.9190     1.4180    -0.9190 ca         1 B4S      -0.350500
      6 C9           1.0580     1.9730    -1.8500 ca         1 B4S      -0.021000
      7 C8           1.4440     3.0830    -2.5730 ca         1 B4S      -0.129000
      8 C11          3.1660     1.9760    -0.7040 ca         1 B4S      -0.021000
      9 C12          3.5600     3.0880    -1.4210 ca         1 B4S      -0.129000
     10 C7           2.7010     3.6460    -2.3640 cp         1 B4S       0.076000
     11 C6           3.1190     4.8410    -3.1370 cp         1 B4S      -0.039000
     12 C13          4.3770     5.4050    -2.9280 ca         1 B4S      -0.149000
     13 C1           4.7620     6.5170    -3.6520 ca         1 B4S       0.192900
     14 F1           5.9800     7.0650    -3.4500 f          1 B4S      -0.105900
     15 C5           2.2590     5.4000    -4.0810 ca         1 B4S      -0.121000
     16 C4           2.6530     6.5120    -4.7980 ca         1 B4S      -0.053000
     17 C2           3.8990     7.0710    -4.5840 ca         1 B4S      -0.192300
     18 C3           4.3230     8.2850    -5.3710 c3         1 B4S       0.680200
     19 F2           4.5960     9.3380    -4.4930 f          1 B4S      -0.208967
     20 F3           5.4730     7.9830    -6.1090 f          1 B4S      -0.208967
     21 F4           3.2950     8.6580    -6.2430 f          1 B4S      -0.208967
     22 H1           2.8820    -1.3230    -0.9840 hn         1 B4S       0.492133
     23 H2           1.4440    -1.3230    -1.7610 hn         1 B4S       0.492133
     24 H3           0.0810     1.5340    -2.0120 ha         1 B4S       0.158000
     25 H4           0.7700     3.5150    -3.3030 ha         1 B4S       0.167500
     26 H5           3.8330     1.5400     0.0300 ha         1 B4S       0.158000
     27 H6           4.5380     3.5220    -1.2530 ha         1 B4S       0.167500
     28 H7           5.0760     4.9320    -2.2490 ha         1 B4S       0.156000
     29 H8           1.2820     4.9640    -4.2500 ha         1 B4S       0.146000
     30 H9           1.9840     6.9470    -5.5300 ha         1 B4S       0.173000
     31 HN3          1.6310    -2.1620    -0.3640 hn         1 B4S       0.492133
@<TRIPOS>BOND
     1    20    18 1
     2    14    13 1
     3    19    18 1
     4    13    12 ar
     5    13    17 ar
     6    18    17 1
     7    18    21 1
     8    12    11 ar
     9    17    16 ar
    10     4     2 1
    11     9     8 ar
    12     9    10 ar
    13    11    10 1
    14    11    15 ar
    15    16    15 ar
    16     8     5 ar
    17    10     7 ar
    18     5     2 1
    19     5     6 ar
    20     7     6 ar
    21     1     2 2
    22     2     3 2
    23     4    22 1
    24     4    23 1
    25     6    24 1
    26     7    25 1
    27     8    26 1
    28     9    27 1
    29    12    28 1
    30    15    29 1
    31    16    30 1
    32    31     4 1
@<TRIPOS>SUBSTRUCTURE
     1 B4S         1 TEMP              0 ****  ****    0 ROOT
