@<TRIPOS>MOLECULE
B4W
   41    44     1     0     0
SMALL
bcc


@<TRIPOS>ATOM
      1 C01          0.0000     0.0000     0.0000 ca         1 B4W      -0.066000
      2 C02          1.3650     0.0000     0.0000 ca         1 B4W      -0.121000
      3 C03          2.0800     0.0000     1.1940 ca         1 B4W      -0.074000
      4 C04          1.4390    -0.0010     2.3960 ca         1 B4W      -0.156300
      5 C05          0.0380    -0.0010     2.4340 ca         1 B4W       0.442600
      6 C06         -0.6880    -0.0000     1.2180 ca         1 B4W      -0.325600
      7 C07         -2.1050     0.0000     1.2790 ca         1 B4W       0.563200
      8 C08         -1.9600    -0.0010     3.5920 cp         1 B4W       0.723500
      9 C09         -2.6690    -0.0010     4.8920 cp         1 B4W      -0.206500
     10 C10         -1.9430    -0.0020     6.0890 ca         1 B4W       0.197100
     11 C11         -2.6150    -0.0030     7.3010 ca         1 B4W      -0.229000
     12 C12         -3.9970    -0.0020     7.3260 ca         1 B4W      -0.038000
     13 C13         -4.7180    -0.0010     6.1450 ca         1 B4W      -0.165000
     14 C14         -4.0630     0.0040     4.9300 ca         1 B4W      -0.022000
     15 C15         -4.3250     0.0010     0.2130 c3         1 B4W       0.123500
     16 C16         -4.8540    -1.4410     0.3320 c3         1 B4W       0.128800
     17 C17         -5.2780    -0.7410    -1.8860 c3         1 B4W       0.140800
     18 C18         -4.9390     0.5480    -1.0960 c3         1 B4W      -0.036400
     19 N19         -0.6400    -0.0010     3.5900 nb         1 B4W      -0.644000
     20 N20         -2.6810    -0.0000     2.4720 nb         1 B4W      -0.723000
     21 N21         -2.8620    -0.0000     0.1270 nu         1 B4W      -0.487900
     22 N22         -5.7400    -1.6760    -0.8280 n7         1 B4W      -0.581200
     23 O23         -0.5860    -0.0040     6.0620 oh         1 B4W      -0.430100
     24 H01         -0.5460     0.0000    -0.9360 ha         1 B4W       0.098000
     25 H02          1.8990     0.0010    -0.9430 ha         1 B4W       0.103000
     26 H03          3.1630     0.0000     1.1670 ha         1 B4W       0.102000
     27 H04          2.0090    -0.0010     3.3180 ha         1 B4W       0.121000
     28 H21         -2.4140     0.0410    -0.7660 hn         1 B4W       0.300800
     29 H14         -4.6300     0.0050     4.0080 ha         1 B4W       0.121000
     30 H11         -2.0570    -0.0040     8.2290 ha         1 B4W       0.110000
     31 H23         -0.2530     0.0310     6.9430 ho         1 B4W       0.386000
     32 H12         -4.5180    -0.0050     8.2750 ha         1 B4W       0.098000
     33 H13         -5.8010     0.0010     6.1730 ha         1 B4W       0.106000
     34 H15         -4.6580     0.5920     1.0580 h1         1 B4W       0.064700
     35 H161        -4.0260    -2.1390     0.3110 h1         1 B4W       0.021700
     36 H162        -5.4150    -1.5520     1.2520 h1         1 B4W       0.021700
     37 H181        -5.8380     1.1150    -0.8880 hc         1 B4W       0.029200
     38 H182        -4.2160     1.1470    -1.6360 hc         1 B4W       0.029200
     39 H22         -5.6310    -2.6190    -1.1460 hn         1 B4W       0.253800
     40 H171        -6.0700    -0.5530    -2.6000 h1         1 B4W       0.010700
     41 H172        -4.3940    -1.1290    -2.3780 h1         1 B4W       0.010700
@<TRIPOS>BOND
     1     1     2 ar  
     2     1     6 ar  
     3     1    24 1   
     4     2     3 ar  
     5     2    25 1   
     6     3     4 ar  
     7     3    26 1   
     8     4     5 ar  
     9     4    27 1   
    10     5     6 ar  
    11     5    19 ar  
    12     6     7 ar  
    13     7    20 ar  
    14     7    21 1   
    15     8     9 1   
    16     8    19 ar  
    17     8    20 ar  
    18     9    10 ar  
    19     9    14 ar  
    20    10    11 ar  
    21    10    23 1   
    22    11    12 ar  
    23    11    30 1   
    24    12    13 ar  
    25    12    32 1   
    26    13    14 ar  
    27    13    33 1   
    28    14    29 1   
    29    15    16 1   
    30    15    18 1   
    31    15    21 1   
    32    15    34 1   
    33    16    22 1   
    34    16    35 1   
    35    16    36 1   
    36    17    18 1   
    37    17    22 1   
    38    17    40 1   
    39    17    41 1   
    40    18    37 1   
    41    18    38 1   
    42    21    28 1   
    43    22    39 1   
    44    23    31 1   
@<TRIPOS>SUBSTRUCTURE
     1 B4W         1 TEMP              0 ****  ****    0 ROOT
