@<TRIPOS>MOLECULE
molecule
   41    44     1     0     0
SMALL
bcc


@<TRIPOS>ATOM
      1 C01          0.0000     0.0000     0.0000 ca         1 B4W      -0.090000
      2 C02          1.3650     0.0000     0.0000 ca         1 B4W      -0.150000
      3 C03          2.0800     0.0000     1.1940 ca         1 B4W      -0.100000
      4 C04          1.4390    -0.0010     2.3960 ca         1 B4W      -0.178300
      5 C05          0.0380    -0.0010     2.4340 ca         1 B4W       0.480600
      6 C06         -0.6880    -0.0000     1.2180 ca         1 B4W      -0.330600
      7 C07         -2.1050     0.0000     1.2790 ca         1 B4W       0.749200
      8 C08         -1.9600    -0.0010     3.5920 cp         1 B4W       0.795500
      9 C09         -2.6690    -0.0010     4.8920 cp         1 B4W      -0.178500
     10 C10         -1.9430    -0.0020     6.0890 ca         1 B4W       0.182100
     11 C11         -2.6150    -0.0030     7.3010 ca         1 B4W      -0.244000
     12 C12         -3.9970    -0.0020     7.3260 ca         1 B4W      -0.069000
     13 C13         -4.7180    -0.0010     6.1450 ca         1 B4W      -0.186000
     14 C14         -4.0630     0.0040     4.9300 ca         1 B4W      -0.047000
     15 C15         -4.3250     0.0010     0.2130 c3         1 B4W       0.231500
     16 C16         -4.8540    -1.4410     0.3320 c3         1 B4W       0.126800
     17 C17         -5.2780    -0.7410    -1.8860 c3         1 B4W       0.135800
     18 C18         -4.9390     0.5480    -1.0960 c3         1 B4W      -0.098400
     19 N19         -0.6400    -0.0010     3.5900 nb         1 B4W      -0.741000
     20 N20         -2.6810    -0.0000     2.4720 nb         1 B4W      -0.833000
     21 N21         -2.8620    -0.0000     0.1270 nu         1 B4W      -0.899900
     22 N22         -5.7400    -1.6760    -0.8280 n7         1 B4W      -0.797200
     23 O23         -0.5860    -0.0040     6.0620 oh         1 B4W      -0.449100
     24 H01         -0.5460     0.0000    -0.9360 ha         1 B4W       0.119000
     25 H02          1.8990     0.0010    -0.9430 ha         1 B4W       0.129000
     26 H03          3.1630     0.0000     1.1670 ha         1 B4W       0.132000
     27 H04          2.0090    -0.0010     3.3180 ha         1 B4W       0.153000
     28 H21         -2.4140     0.0410    -0.7660 hn         1 B4W       0.448800
     29 H14         -4.6300     0.0050     4.0080 ha         1 B4W       0.155000
     30 H11         -2.0570    -0.0040     8.2290 ha         1 B4W       0.132000
     31 H23         -0.2530     0.0310     6.9430 ho         1 B4W       0.409000
     32 H12         -4.5180    -0.0050     8.2750 ha         1 B4W       0.130000
     33 H13         -5.8010     0.0010     6.1730 ha         1 B4W       0.133000
     34 H15         -4.6580     0.5920     1.0580 h1         1 B4W       0.090700
     35 H161        -4.0260    -2.1390     0.3110 h1         1 B4W       0.053700
     36 H162        -5.4150    -1.5520     1.2520 h1         1 B4W       0.053700
     37 H181        -5.8380     1.1150    -0.8880 hc         1 B4W       0.060700
     38 H182        -4.2160     1.1470    -1.6360 hc         1 B4W       0.060700
     39 H22         -5.6310    -2.6190    -1.1460 hn         1 B4W       0.349800
     40 H171        -6.0700    -0.5530    -2.6000 h1         1 B4W       0.040200
     41 H172        -4.3940    -1.1290    -2.3780 h1         1 B4W       0.040200
@<TRIPOS>BOND
     1     1     2 ar
     2     1     6 ar
     3     2     3 ar
     4     3     4 ar
     5     4     5 ar
     6     5     6 ar
     7     5    19 ar
     8     6     7 ar
     9     7    20 ar
    10     7    21 1
    11     8     9 1
    12     8    19 ar
    13     8    20 ar
    14     9    10 ar
    15     9    14 ar
    16    10    11 ar
    17    10    23 1
    18    11    12 ar
    19    12    13 ar
    20    13    14 ar
    21    15    16 1
    22    15    18 1
    23    15    21 1
    24    16    22 1
    25    17    18 1
    26    17    22 1
    27     1    24 1
    28     2    25 1
    29     3    26 1
    30     4    27 1
    31    21    28 1
    32    14    29 1
    33    11    30 1
    34    23    31 1
    35    12    32 1
    36    13    33 1
    37    15    34 1
    38    16    35 1
    39    16    36 1
    40    18    37 1
    41    18    38 1
    42    22    39 1
    43    17    40 1
    44    17    41 1
@<TRIPOS>SUBSTRUCTURE
     1 B4W         1 TEMP              0 ****  ****    0 ROOT
