@<TRIPOS>MOLECULE
molecule
   67    71     1     0     0
SMALL
bcc


@<TRIPOS>ATOM
      1 N1           0.0000     0.0000     0.0000 nc         1 B4Y      -0.670000
      2 C2           1.2920     0.0000     0.0000 cd         1 B4Y       0.515300
      3 S3           1.8790     0.0000     1.6050 ss         1 B4Y      -0.177300
      4 C4           0.2310    -0.0010     2.2180 cd         1 B4Y      -0.139700
      5 C5          -0.6170    -0.0010     1.1750 cc         1 B4Y       0.404600
      6 C6          -2.1290    -0.0010     1.3450 c3         1 B4Y      -0.093700
      7 C7          -2.4630     0.4360     2.7730 c3         1 B4Y      -0.097400
      8 C8          -1.6540    -0.4040     3.7650 c3         1 B4Y       0.175500
      9 C9          -0.1780    -0.0030     3.6720 c3         1 B4Y      -0.046100
     10 N10         -2.1440    -0.1630     5.1290 n3         1 B4Y      -0.733600
     11 C11          1.9420     0.0000    -7.3310 c3         1 B4Y       0.199000
     12 C12          2.5740     0.0000    -5.9640 ca         1 B4Y      -0.093300
     13 C13          3.9530     0.0010    -5.8400 ca         1 B4Y      -0.089000
     14 C14          4.5410     0.0010    -4.5880 ca         1 B4Y      -0.165000
     15 C15          3.7560     0.0020    -3.4530 ca         1 B4Y      -0.093000
     16 C16          2.3650     0.0010    -3.5710 ca         1 B4Y      -0.138600
     17 C17          1.7780     0.0060    -4.8370 ca         1 B4Y      -0.047000
     18 C18          1.5190     0.0000    -2.3590 c          1 B4Y       0.591700
     19 N19          2.0880     0.0010    -1.1390 ns         1 B4Y      -0.445400
     20 O20          0.3070    -0.0000    -2.4650 o          1 B4Y      -0.528100
     21 C21          2.2570     1.1910    -9.4160 c3         1 B4Y      -0.065400
     22 C22          3.2300    -0.0120    -9.3480 c3         1 B4Y       0.048000
     23 N23          2.7200    -0.8480    -8.2460 n          1 B4Y      -0.511800
     24 C24          2.9330    -2.1710    -8.0990 c          1 B4Y       0.772100
     25 N25          3.6680    -2.8400    -9.0100 ns         1 B4Y      -0.445100
     26 O26          2.4630    -2.7610    -7.1470 o          1 B4Y      -0.623100
     27 C27          3.9720    -4.1920    -8.8080 ca         1 B4Y       0.059600
     28 C28          3.0480    -5.0250    -8.1960 ca         1 B4Y      -0.080000
     29 C29          3.3550    -6.3720    -7.9980 ca         1 B4Y      -0.018000
     30 C30          4.5900    -6.8710    -8.4190 ca         1 B4Y      -0.142000
     31 C31          5.5000    -6.0330    -9.0280 ca         1 B4Y      -0.112000
     32 C32          5.1940    -4.6990    -9.2290 ca         1 B4Y      -0.126000
     33 C33          2.4070    -7.2390    -7.3650 cg         1 B4Y       0.241800
     34 N34          1.6570    -7.9390    -6.8780 n1         1 B4Y      -0.361800
     35 C35          1.9500     1.4290    -7.9140 c3         1 B4Y      -0.138400
     36 C36         -1.4620    -1.0330     6.0950 c3         1 B4Y       0.127600
     37 C37         -1.9970     1.2520     5.4990 c3         1 B4Y       0.127600
     38 H1          -2.6110     0.8150     0.8200 hc         1 B4Y       0.063700
     39 H2          -2.7000    -0.8200     0.9240 hc         1 B4Y       0.063700
     40 H3          -2.5870     1.4890     2.9980 hc         1 B4Y       0.056200
     41 H4          -3.4530     0.0820     3.0360 hc         1 B4Y       0.056200
     42 H5          -1.7590    -1.4530     3.5180 h1         1 B4Y       0.077700
     43 H6           0.1640    -0.9490     4.0740 hc         1 B4Y       0.061200
     44 H7           0.1690     0.8280     4.2750 hc         1 B4Y       0.061200
     45 H9           0.9240    -0.3640    -7.2720 h1         1 B4Y       0.072700
     46 H10          4.7050     0.2040    -6.5930 ha         1 B4Y       0.130000
     47 H11          5.5860    -0.2760    -4.6560 ha         1 B4Y       0.137000
     48 H12          4.3510    -0.1520    -2.5610 ha         1 B4Y       0.146000
     49 H13          0.7040     0.0390    -4.9770 ha         1 B4Y       0.157000
     50 H14          2.4470     0.8450    -1.5390 hn         1 B4Y       0.296500
     51 H15          2.9420     1.8760    -9.9000 hc         1 B4Y       0.063700
     52 H16          1.6600     0.7340   -10.1960 hc         1 B4Y       0.063700
     53 H17          4.2570     0.2660    -9.1430 h1         1 B4Y       0.053200
     54 H18          2.9680    -0.5560   -10.2470 h1         1 B4Y       0.053200
     55 H19          4.3650    -2.2270    -9.3860 hn         1 B4Y       0.298500
     56 H20          2.0310    -4.7550    -7.9420 ha         1 B4Y       0.173000
     57 H21          4.7530    -7.9060    -8.1450 ha         1 B4Y       0.142000
     58 H22          6.2210    -6.8050    -9.2670 ha         1 B4Y       0.156000
     59 H23          5.8440    -3.9140    -9.5950 ha         1 B4Y       0.130000
     60 H24          0.9700     1.5380    -8.3610 hc         1 B4Y       0.077700
     61 H25          1.7100     2.2600    -7.2620 hc         1 B4Y       0.077700
     62 H26         -1.8970    -0.6980     7.0290 h1         1 B4Y       0.041033
     63 H27         -1.9400    -1.9200     5.6970 h1         1 B4Y       0.041033
     64 H28         -0.4310    -0.8540     5.8160 h1         1 B4Y       0.041033
     65 H29         -2.6270     1.7840     6.2010 h1         1 B4Y       0.041033
     66 H30         -2.1870     1.8820     4.6390 h1         1 B4Y       0.041033
     67 H31         -0.9860     1.5570     5.7420 h1         1 B4Y       0.041033
@<TRIPOS>BOND
     1    31    30 ar
     2    31    32 ar
     3    30    29 ar
     4    15    14 ar
     5    15    16 ar
     6    32    27 ar
     7    29    33 1
     8    29    28 ar
     9    33    34 3
    10    14    13 ar
    11    20    18 2
    12    18    19 1
    13    18    16 1
    14    19     2 1
    15    16    17 ar
    16    27    28 ar
    17    27    25 1
    18    26    24 2
    19     2     3 1
    20     2     1 2
    21     3     4 1
    22     1     5 1
    23    13    12 ar
    24     4     5 2
    25     4     9 1
    26     5     6 1
    27     8     9 1
    28     8    10 1
    29     8     7 1
    30     6     7 1
    31    17    12 ar
    32    37    10 1
    33    25    24 1
    34    24    23 1
    35    10    36 1
    36    12    11 1
    37    23    11 1
    38    23    22 1
    39    11    35 1
    40    22    21 1
    41    35    21 1
    42     6    38 1
    43     6    39 1
    44     7    40 1
    45     7    41 1
    46     8    42 1
    47     9    43 1
    48     9    44 1
    49    11    45 1
    50    13    46 1
    51    14    47 1
    52    15    48 1
    53    17    49 1
    54    19    50 1
    55    21    51 1
    56    21    52 1
    57    22    53 1
    58    22    54 1
    59    25    55 1
    60    28    56 1
    61    30    57 1
    62    31    58 1
    63    32    59 1
    64    35    60 1
    65    35    61 1
    66    36    62 1
    67    36    63 1
    68    36    64 1
    69    37    65 1
    70    37    66 1
    71    37    67 1
@<TRIPOS>SUBSTRUCTURE
     1 B4Y         1 TEMP              0 ****  ****    0 ROOT
