@<TRIPOS>MOLECULE
molecule
   43    45     1     0     0
SMALL
bcc


@<TRIPOS>ATOM
      1 O3           0.0000     0.0000     0.0000 o          1 B4Z      -0.633300
      2 S            1.4200     0.0000     0.0000 sy         1 B4Z       1.430200
      3 O            2.1980     0.0000     1.1900 o          1 B4Z      -0.633300
      4 C            1.9180    -1.4170    -0.9200 ca         1 B4Z      -0.315500
      5 C5           3.2790    -1.6740    -1.1410 ca         1 B4Z       0.067000
      6 C6           4.2910    -0.8280    -0.6540 ca         1 B4Z      -0.261300
      7 C7           5.5900    -1.1470    -0.9110 ca         1 B4Z       0.438200
      8 N            5.9210    -2.2280    -1.6040 nb         1 B4Z      -0.698000
      9 C8           5.0310    -3.0620    -2.0880 ca         1 B4Z       0.458200
     10 C4           3.6630    -2.8250    -1.8790 ca         1 B4Z      -0.192300
     11 C3           2.6720    -3.6860    -2.3760 ca         1 B4Z      -0.041000
     12 C2           1.3610    -3.4050    -2.1410 ca         1 B4Z      -0.165000
     13 C1           0.9840    -2.2760    -1.4170 ca         1 B4Z       0.016000
     14 N1           1.8880     1.3340    -0.8630 n7         1 B4Z      -0.918100
     15 C9           1.3120     1.5890    -2.1860 c3         1 B4Z       0.231800
     16 C10          1.5690     3.0440    -2.5820 c3         1 B4Z       0.147800
     17 N2           0.9910     3.3000    -3.9090 n7         1 B4Z      -0.812200
     18 C11          1.2200     4.6900    -4.3230 c3         1 B4Z       0.206100
     19 C12          0.6150     4.9150    -5.6850 ca         1 B4Z      -0.089300
     20 C17          1.3680     4.6900    -6.8210 ca         1 B4Z      -0.114000
     21 C16          0.8130     4.8950    -8.0710 ca         1 B4Z      -0.129000
     22 C15         -0.4960     5.3260    -8.1830 ca         1 B4Z      -0.124000
     23 C14         -1.2490     5.5510    -7.0460 ca         1 B4Z      -0.129000
     24 C13         -0.6960     5.3410    -5.7970 ca         1 B4Z      -0.114000
     25 H3           4.0430     0.0610    -0.0860 ha         1 B4Z       0.153000
     26 H4           6.3750    -0.4990    -0.5390 h4         1 B4Z       0.026100
     27 H5           5.3510    -3.9320    -2.6490 h4         1 B4Z       0.028100
     28 H2           2.9490    -4.5680    -2.9410 ha         1 B4Z       0.139000
     29 H1           0.5970    -4.0700    -2.5240 ha         1 B4Z       0.140000
     30 H           -0.0670    -2.0780    -1.2460 ha         1 B4Z       0.160000
     31 H6           2.5300     1.9890    -0.4630 hn         1 B4Z       0.453800
     32 H8           0.2440     1.4060    -2.1560 h1         1 B4Z       0.056200
     33 H7           1.7710     0.9300    -2.9130 h1         1 B4Z       0.056200
     34 H9           2.6360     3.2260    -2.6120 h1         1 B4Z       0.038700
     35 H10          1.1100     3.7030    -1.8550 h1         1 B4Z       0.038700
     36 H11          1.4030     2.6800    -4.5780 hn         1 B4Z       0.356800
     37 H12          0.7600     5.3610    -3.6080 h1         1 B4Z       0.039200
     38 H13          2.2850     4.8830    -4.3650 h1         1 B4Z       0.039200
     39 H19          2.3940     4.3530    -6.7330 ha         1 B4Z       0.131000
     40 H18          1.4040     4.7190    -8.9610 ha         1 B4Z       0.130500
     41 H17         -0.9310     5.4880    -9.1620 ha         1 B4Z       0.130000
     42 H16         -2.2760     5.8870    -7.1340 ha         1 B4Z       0.130500
     43 H15         -1.2860     5.5180    -4.9060 ha         1 B4Z       0.131000
@<TRIPOS>BOND
     1     8     9 ar
     2     8     7 ar
     3     9    10 ar
     4     7     6 ar
     5    10    11 ar
     6    10     5 ar
     7    11    12 ar
     8     6     5 ar
     9     5     4 ar
    10    12    13 ar
    11    16    15 1
    12    16    17 1
    13     4    13 ar
    14     4     2 1
    15    15    14 1
    16     1     2 2
    17     2    14 1
    18     2     3 2
    19    17    18 1
    20    18    19 1
    21    20    19 ar
    22    20    21 ar
    23    19    24 ar
    24    21    22 ar
    25    24    23 ar
    26    22    23 ar
    27     6    25 1
    28     7    26 1
    29     9    27 1
    30    11    28 1
    31    12    29 1
    32    13    30 1
    33    14    31 1
    34    15    32 1
    35    15    33 1
    36    16    34 1
    37    16    35 1
    38    17    36 1
    39    18    37 1
    40    18    38 1
    41    20    39 1
    42    21    40 1
    43    22    41 1
    44    23    42 1
    45    24    43 1
@<TRIPOS>SUBSTRUCTURE
     1 B4Z         1 TEMP              0 ****  ****    0 ROOT
