@<TRIPOS>MOLECULE
molecule
   74    77     1     0     0
SMALL
bcc


@<TRIPOS>ATOM
      1 CAA          0.0000     0.0000     0.0000 c3         1 B50       0.153100
      2 OAB          8.2500     3.5710     5.6460 o          1 B50      -0.599100
      3 OAC          6.6850     1.1100    11.2850 oh         1 B50      -0.615800
      4 OAD          5.6490     3.7650    10.9170 oh         1 B50      -0.605800
      5 CAF          9.9910     7.3680     2.0500 ca         1 B50      -0.127000
      6 CAG         10.5310     6.5390     3.0170 ca         1 B50      -0.132500
      7 CAH          8.7940     8.0220     2.2820 ca         1 B50      -0.132500
      8 CAI          9.8780     6.3590     4.2200 ca         1 B50      -0.109500
      9 CAJ          8.1310     7.8500     3.4790 ca         1 B50      -0.109500
     10 CAK          7.7070    11.5630     6.8240 ca         1 B50      -0.123000
     11 CAL          9.9650    10.8320     6.4600 ca         1 B50      -0.123000
     12 CAM          7.2830    10.2510     6.8660 ca         1 B50      -0.109500
     13 CAN          9.5500     9.5160     6.5010 ca         1 B50      -0.109500
     14 CAO          7.0620     7.2110     7.7630 cc         1 B50      -0.125300
     15 CAP          7.3870     2.1240    10.5630 c3         1 B50       0.118400
     16 CAQ          4.9600     2.6720     3.2060 c3         1 B50      -0.102400
     17 CAR          6.2200     2.7480     4.0690 c3         1 B50       0.109000
     18 CAT          4.8680     1.2900     2.5560 c3         1 B50       0.167800
     19 CAU          2.4220     0.0000     0.0000 c3         1 B50       0.163800
     20 CAV          1.2120     1.2900     1.6530 c3         1 B50       0.163800
     21 CAW          3.6570     0.0000     0.9030 c3         1 B50       0.162800
     22 CAX          2.4480     1.2900     2.5570 c3         1 B50       0.162800
     23 CAY          6.1170     4.9480     8.2780 c3         1 B50       0.042300
     24 NAZ          6.3070     4.0720     4.6910 ns         1 B50      -0.576900
     25 CBA          7.3420     4.3700     5.5010 c          1 B50       0.703700
     26 CBB          9.0460    11.8540     6.6210 ca         1 B50       0.025400
     27 CBC          8.2040     9.2180     6.7050 ca         1 B50       0.002000
     28 CBD          8.6700     7.0150     4.4580 ca         1 B50      -0.020000
     29 CBE          7.7540     7.8060     6.7490 cd         1 B50      -0.121000
     30 CBF          7.9630     6.8260     5.7450 cd         1 B50      -0.055000
     31 CBG          7.3760     5.6520     6.2050 cc         1 B50      -0.181900
     32 CBH          6.3810     3.0710     9.9060 c3         1 B50       0.151100
     33 NBI          1.2110     0.0730     0.8290 n3         1 B50      -0.734600
     34 NBJ          3.6590     1.2160     1.7270 n3         1 B50      -0.733600
     35 NBK          6.8320     5.9160     7.4420 na         1 B50      -0.021100
     36 HAA         -0.0250     0.8450    -0.6770 h1         1 B50       0.032367
     37 HAAA        -0.8760     0.0220     0.6370 h1         1 B50       0.032367
     38 HAAB         0.0080    -0.9200    -0.5710 h1         1 B50       0.032367
     39 HOAC         7.2990     0.4730    11.6090 ho         1 B50       0.408000
     40 HAF         10.5080     7.5060     1.1080 ha         1 B50       0.127000
     41 HAG         11.4690     6.0300     2.8300 ha         1 B50       0.129500
     42 HAH          8.3760     8.6700     1.5210 ha         1 B50       0.129500
     43 HAI         10.3010     5.7100     4.9760 ha         1 B50       0.139500
     44 HAJ          7.1930     8.3630     3.6590 ha         1 B50       0.139500
     45 HAK          6.9920    12.3670     6.9500 ha         1 B50       0.142500
     46 HAL         11.0110    11.0650     6.3020 ha         1 B50       0.142500
     47 HAM          6.2360    10.0240     7.0250 ha         1 B50       0.141500
     48 HAN         10.2700     8.7160     6.3740 ha         1 B50       0.141500
     49 HAO          6.7470     7.6970     8.6790 h4         1 B50       0.176000
     50 HAP          8.0020     1.6630     9.7990 h1         1 B50       0.035200
     51 HAPA         8.0160     2.6830    11.2450 h1         1 B50       0.035200
     52 HAQ          5.0040     3.4310     2.4350 hc         1 B50       0.054200
     53 HAQA         4.0870     2.8370     3.8270 hc         1 B50       0.054200
     54 HAR          7.0930     2.5830     3.4480 h1         1 B50       0.053200
     55 HARA         6.1770     1.9880     4.8400 h1         1 B50       0.053200
     56 HAS          7.7520     3.5530     8.3220 hc         1 B50       0.075700
     57 HASA         7.7480     4.7120     9.6590 hc         1 B50       0.075700
     58 HAT          5.7410     1.1240     1.9360 h1         1 B50       0.037700
     59 HATA         4.8240     0.5300     3.3270 h1         1 B50       0.037700
     60 HAU          2.4590     0.8580    -0.6600 h1         1 B50       0.041200
     61 HAUA         2.4040    -0.9120    -0.5850 h1         1 B50       0.041200
     62 HAV          1.2370     2.1610     1.0090 h1         1 B50       0.041200
     63 HAVA         0.3180     1.3130     2.2640 h1         1 B50       0.041200
     64 HAW          3.6320    -0.8710     1.5470 h1         1 B50       0.041200
     65 HAWA         4.5510    -0.0220     0.2920 h1         1 B50       0.041200
     66 HAX          2.4110     0.4310     3.2170 h1         1 B50       0.041200
     67 HAXA         2.4660     2.2010     3.1420 h1         1 B50       0.041200
     68 HAY          5.4930     5.4760     8.9880 h1         1 B50       0.068200
     69 HAYA         5.4970     4.3170     7.6520 h1         1 B50       0.068200
     70 HNAZ         5.6060     4.7600     4.5020 hn         1 B50       0.321500
     71 HBH          5.6960     2.4990     9.2910 h1         1 B50       0.041700
     72 ClAE         9.5730    13.5070     6.5700 cl         1 B50      -0.116400
     73 CAS          7.1280     4.0810     9.0320 c3         1 B50      -0.108400
     74 HOAD         4.8200     3.3370    11.0560 ho         1 B50       0.412000
@<TRIPOS>BOND
     1     1    33 1
     2     2    25 2
     3     3    15 1
     4     4    32 1
     5    72    26 1
     6     5     6 ar
     7     5     7 ar
     8     6     8 ar
     9     7     9 ar
    10     8    28 ar
    11     9    28 ar
    12    10    12 ar
    13    10    26 ar
    14    11    13 ar
    15    11    26 ar
    16    12    27 ar
    17    13    27 ar
    18    14    29 2
    19    14    35 1
    20    15    32 1
    21    16    17 1
    22    16    18 1
    23    17    24 1
    24    73    23 1
    25    73    32 1
    26    18    34 1
    27    19    21 1
    28    19    33 1
    29    20    22 1
    30    20    33 1
    31    21    34 1
    32    22    34 1
    33    23    35 1
    34    24    25 1
    35    25    31 1
    36    27    29 1
    37    28    30 1
    38    29    30 1
    39    30    31 2
    40    31    35 1
    41     1    36 1
    42     1    37 1
    43     1    38 1
    44     3    39 1
    45     4    74 1
    46     5    40 1
    47     6    41 1
    48     7    42 1
    49     8    43 1
    50     9    44 1
    51    10    45 1
    52    11    46 1
    53    12    47 1
    54    13    48 1
    55    14    49 1
    56    15    50 1
    57    15    51 1
    58    16    52 1
    59    16    53 1
    60    17    54 1
    61    17    55 1
    62    73    56 1
    63    73    57 1
    64    18    58 1
    65    18    59 1
    66    19    60 1
    67    19    61 1
    68    20    62 1
    69    20    63 1
    70    21    64 1
    71    21    65 1
    72    22    66 1
    73    22    67 1
    74    23    68 1
    75    23    69 1
    76    24    70 1
    77    32    71 1
@<TRIPOS>SUBSTRUCTURE
     1 B50         1 TEMP              0 ****  ****    0 ROOT
