@<TRIPOS>MOLECULE
B50
   74    77     1     0     0
SMALL
bcc


@<TRIPOS>ATOM
      1 CAA          0.0000     0.0000     0.0000 c3         1 B50       0.189100
      2 OAB          8.2500     3.5710     5.6460 o          1 B50      -0.644100
      3 OAC          6.6850     1.1100    11.2850 oh         1 B50      -0.597800
      4 OAD          5.6490     3.7650    10.9170 oh         1 B50      -0.586800
      5 CAF          9.9910     7.3680     2.0500 ca         1 B50      -0.104000
      6 CAG         10.5310     6.5390     3.0170 ca         1 B50      -0.105000
      7 CAH          8.7940     8.0220     2.2820 ca         1 B50      -0.105000
      8 CAI          9.8780     6.3590     4.2200 ca         1 B50      -0.090000
      9 CAJ          8.1310     7.8500     3.4790 ca         1 B50      -0.090000
     10 CAK          7.7070    11.5630     6.8240 ca         1 B50      -0.099500
     11 CAL          9.9650    10.8320     6.4600 ca         1 B50      -0.099500
     12 CAM          7.2830    10.2510     6.8660 ca         1 B50      -0.087500
     13 CAN          9.5500     9.5160     6.5010 ca         1 B50      -0.087500
     14 CAO          7.0620     7.2110     7.7630 cc         1 B50      -0.304300
     15 CAP          7.3870     2.1240    10.5630 c3         1 B50       0.196400
     16 CAQ          4.9600     2.6720     3.2060 c3         1 B50      -0.052400
     17 CAR          6.2200     2.7480     4.0690 c3         1 B50       0.048000
     18 CAT          4.8680     1.2900     2.5560 c3         1 B50       0.161800
     19 CAU          2.4220     0.0000     0.0000 c3         1 B50       0.155300
     20 CAV          1.2120     1.2900     1.6530 c3         1 B50       0.155300
     21 CAW          3.6570     0.0000     0.9030 c3         1 B50       0.150300
     22 CAX          2.4480     1.2900     2.5570 c3         1 B50       0.150300
     23 CAY          6.1170     4.9480     8.2780 c3         1 B50      -0.060700
     24 NAZ          6.3070     4.0720     4.6910 ns         1 B50      -0.189900
     25 CBA          7.3420     4.3700     5.5010 c          1 B50       0.635700
     26 CBB          9.0460    11.8540     6.6210 ca         1 B50      -0.038600
     27 CBC          8.2040     9.2180     6.7050 ca         1 B50       0.016000
     28 CBD          8.6700     7.0150     4.4580 ca         1 B50      -0.008000
     29 CBE          7.7540     7.8060     6.7490 cd         1 B50      -0.107000
     30 CBF          7.9630     6.8260     5.7450 cd         1 B50      -0.041000
     31 CBG          7.3760     5.6520     6.2050 cc         1 B50      -0.379900
     32 CBH          6.3810     3.0710     9.9060 c3         1 B50       0.188100
     33 NBI          1.2110     0.0730     0.8290 n3         1 B50      -0.549600
     34 NBJ          3.6590     1.2160     1.7270 n3         1 B50      -0.545600
     35 NBK          6.8320     5.9160     7.4420 na         1 B50       0.490900
     36 HAA         -0.0250     0.8450    -0.6770 h1         1 B50       0.000367
     37 HAAA        -0.8760     0.0220     0.6370 h1         1 B50       0.000367
     38 HAAB         0.0080    -0.9200    -0.5710 h1         1 B50       0.000367
     39 HOAC         7.2990     0.4730    11.6090 ho         1 B50       0.395000
     40 HAF         10.5080     7.5060     1.1080 ha         1 B50       0.100000
     41 HAG         11.4690     6.0300     2.8300 ha         1 B50       0.102000
     42 HAH          8.3760     8.6700     1.5210 ha         1 B50       0.102000
     43 HAI         10.3010     5.7100     4.9760 ha         1 B50       0.113500
     44 HAJ          7.1930     8.3630     3.6590 ha         1 B50       0.113500
     45 HAK          6.9920    12.3670     6.9500 ha         1 B50       0.113000
     46 HAL         11.0110    11.0650     6.3020 ha         1 B50       0.113000
     47 HAM          6.2360    10.0240     7.0250 ha         1 B50       0.112500
     48 HAN         10.2700     8.7160     6.3740 ha         1 B50       0.112500
     49 HAO          6.7470     7.6970     8.6790 h4         1 B50       0.153000
     50 HAP          8.0020     1.6630     9.7990 h1         1 B50      -0.000800
     51 HAPA         8.0160     2.6830    11.2450 h1         1 B50      -0.000800
     52 HAQ          5.0040     3.4310     2.4350 hc         1 B50       0.026200
     53 HAQA         4.0870     2.8370     3.8270 hc         1 B50       0.026200
     54 HAR          7.0930     2.5830     3.4480 h1         1 B50       0.026700
     55 HARA         6.1770     1.9880     4.8400 h1         1 B50       0.026700
     56 HAS          7.7520     3.5530     8.3220 hc         1 B50       0.045700
     57 HASA         7.7480     4.7120     9.6590 hc         1 B50       0.045700
     58 HAT          5.7410     1.1240     1.9360 h1         1 B50       0.012700
     59 HATA         4.8240     0.5300     3.3270 h1         1 B50       0.012700
     60 HAU          2.4590     0.8580    -0.6600 h1         1 B50       0.014200
     61 HAUA         2.4040    -0.9120    -0.5850 h1         1 B50       0.014200
     62 HAV          1.2370     2.1610     1.0090 h1         1 B50       0.014200
     63 HAVA         0.3180     1.3130     2.2640 h1         1 B50       0.014200
     64 HAW          3.6320    -0.8710     1.5470 h1         1 B50       0.015450
     65 HAWA         4.5510    -0.0220     0.2920 h1         1 B50       0.015450
     66 HAX          2.4110     0.4310     3.2170 h1         1 B50       0.015450
     67 HAXA         2.4660     2.2010     3.1420 h1         1 B50       0.015450
     68 HAY          5.4930     5.4760     8.9880 h1         1 B50       0.039700
     69 HAYA         5.4970     4.3170     7.6520 h1         1 B50       0.039700
     70 HNAZ         5.6060     4.7600     4.5020 hn         1 B50       0.180500
     71 HBH          5.6960     2.4990     9.2910 h1         1 B50       0.006700
     72 ClAE         9.5730    13.5070     6.5700 cl         1 B50      -0.036400
     73 CAS          7.1280     4.0810     9.0320 c3         1 B50      -0.063400
     74 HOAD         4.8200     3.3370    11.0560 ho         1 B50       0.399000
@<TRIPOS>BOND
     1     1    33 1   
     2     1    36 1   
     3     1    37 1   
     4     1    38 1   
     5     2    25 2   
     6     3    15 1   
     7     3    39 1   
     8     4    32 1   
     9     4    74 1   
    10     5     6 ar  
    11     5     7 ar  
    12     5    40 1   
    13     6     8 ar  
    14     6    41 1   
    15     7     9 ar  
    16     7    42 1   
    17     8    28 ar  
    18     8    43 1   
    19     9    28 ar  
    20     9    44 1   
    21    10    12 ar  
    22    10    26 ar  
    23    10    45 1   
    24    11    13 ar  
    25    11    26 ar  
    26    11    46 1   
    27    12    27 ar  
    28    12    47 1   
    29    13    27 ar  
    30    13    48 1   
    31    14    29 2   
    32    14    35 1   
    33    14    49 1   
    34    15    32 1   
    35    15    50 1   
    36    15    51 1   
    37    16    17 1   
    38    16    18 1   
    39    16    52 1   
    40    16    53 1   
    41    17    24 1   
    42    17    54 1   
    43    17    55 1   
    44    18    34 1   
    45    18    58 1   
    46    18    59 1   
    47    19    21 1   
    48    19    33 1   
    49    19    60 1   
    50    19    61 1   
    51    20    22 1   
    52    20    33 1   
    53    20    62 1   
    54    20    63 1   
    55    21    34 1   
    56    21    64 1   
    57    21    65 1   
    58    22    34 1   
    59    22    66 1   
    60    22    67 1   
    61    23    35 1   
    62    23    68 1   
    63    23    69 1   
    64    23    73 1   
    65    24    25 1   
    66    24    70 1   
    67    25    31 1   
    68    26    72 1   
    69    27    29 1   
    70    28    30 1   
    71    29    30 1   
    72    30    31 2   
    73    31    35 1   
    74    32    71 1   
    75    32    73 1   
    76    56    73 1   
    77    57    73 1   
@<TRIPOS>SUBSTRUCTURE
     1 B50         1 TEMP              0 ****  ****    0 ROOT
