@<TRIPOS>MOLECULE
B52
   30    31     1     0     0
SMALL
bcc


@<TRIPOS>ATOM
      1 C2           0.0000     0.0000     0.0000 cc         1 B52       0.146600
      2 C3          -0.0110     0.0120    -2.3150 cd         1 B52       0.021800
      3 C4           2.1050     0.0010    -1.2840 c          1 B52       0.618700
      4 C1           1.4060     0.0000     0.0000 cd         1 B52      -0.330400
      5 C17          2.8170    -1.2870     3.9270 c          1 B52       0.993600
      6 O19          3.5310    -1.5100     5.0430 o          1 B52      -0.865300
      7 C15          2.0510     0.0000     3.7670 c3         1 B52      -0.195000
      8 C16          1.0230     0.1260     4.8940 c3         1 B52      -0.058100
      9 C11          1.3420     0.0000     2.4370 cc         1 B52       0.472300
     10 C12          2.0990     0.0000     1.2340 c          1 B52       0.480000
     11 O13          3.3190     0.0010     1.2640 o          1 B52      -0.448100
     12 N3           0.0420    -0.0010     2.3990 nd         1 B52      -0.531400
     13 N4          -0.6640    -0.0010     1.1920 na         1 B52       0.107500
     14 C14         -2.1300    -0.0020     1.2080 c3         1 B52       0.197100
     15 O4           3.3220     0.0010    -1.3420 o          1 B52      -0.554500
     16 N1          -0.6510     0.0050    -1.1650 nc         1 B52      -0.443300
     17 N6          -0.7430     0.0180    -3.4700 nz         1 B52       0.209400
     18 N2           1.3460     0.0130    -2.4060 ns         1 B52      -0.003400
     19 H15          2.7380     0.8370     3.8100 hc         1 B52       0.054700
     20 H16          1.6810     0.9810     4.9810 hc         1 B52       0.034700
     21 H16A         0.0180     0.3600     4.5640 hc         1 B52       0.034700
     22 H16B         1.1270    -0.6080     5.6840 hc         1 B52       0.034700
     23 H14         -2.4790    -0.0230     2.2330 h1         1 B52       0.023367
     24 H14A        -2.4950    -0.8770     0.6840 h1         1 B52       0.023367
     25 H14B        -2.4970     0.8920     0.7190 h1         1 B52       0.023367
     26 HN6         -1.7190     0.0130    -3.2460 hn         1 B52       0.213467
     27 HN6A        -0.5260     0.8400    -3.9980 hn         1 B52       0.213467
     28 HN2          1.7860     0.0180    -3.3050 hn         1 B52       0.175500
     29 H63         -0.5210    -0.7940    -4.0100 hn         1 B52       0.213467
     30 O18          2.7580    -2.1360     3.0700 o          1 B52      -0.865300
@<TRIPOS>BOND
     1     1     4 2   
     2     1    13 1   
     3     1    16 1   
     4     2    16 2   
     5     2    17 1   
     6     2    18 1   
     7     3     4 1   
     8     3    15 2   
     9     3    18 1   
    10     4    10 1   
    11     5     6 1   
    12     5     7 1   
    13     5    30 1   
    14     7     8 1   
    15     7     9 1   
    16     7    19 1   
    17     8    20 1   
    18     8    21 1   
    19     8    22 1   
    20     9    10 1   
    21     9    12 2   
    22    10    11 2   
    23    12    13 1   
    24    13    14 1   
    25    14    23 1   
    26    14    24 1   
    27    14    25 1   
    28    17    26 1   
    29    17    27 1   
    30    17    29 1   
    31    18    28 1   
@<TRIPOS>SUBSTRUCTURE
     1 B52         1 TEMP              0 ****  ****    0 ROOT
