@<TRIPOS>MOLECULE
B53
   18    18     1     0     0
SMALL
bcc


@<TRIPOS>ATOM
      1 O10          0.0000     0.0000     0.0000 o          1 B53       0.012300
      2 N9           1.2180     0.0000     0.0000 n2         1 B53      -0.315000
      3 C4           1.8770     0.0000     1.1420 cc         1 B53       0.371500
      4 C1           1.1760     0.1090     2.4390 c          1 B53       0.540700
      5 O2          -0.0350     0.2020     2.4940 o          1 B53      -0.454500
      6 C7           3.3460    -0.1150     1.1830 cd         1 B53      -0.068400
      7 N12          4.0710    -0.2240     0.0300 nz         1 B53       0.288600
      8 N6           3.9500    -0.1090     2.3670 nd         1 B53      -0.460300
      9 C5           3.2800    -0.0030     3.4960 cc         1 B53       0.128800
     10 N8           3.9820    -0.0050     4.6640 nz         1 B53       0.177400
     11 N3           1.9270     0.1010     3.5610 ns         1 B53       0.098600
     12 HN12         3.7890    -1.0480    -0.4650 hn         1 B53       0.238467
     13 HN1A         5.0450    -0.2860     0.2530 hn         1 B53       0.238467
     14 HN8          3.6950    -0.7830     5.2250 hn         1 B53       0.248133
     15 HN8A         3.8070     0.8460     5.1600 hn         1 B53       0.248133
     16 H5           1.4800     0.1750     4.4540 hn         1 B53       0.219500
     17 H123         3.9090     0.5790    -0.5440 hn         1 B53       0.238467
     18 H83          4.9620    -0.0450     4.4640 hn         1 B53       0.248133
@<TRIPOS>BOND
     1     1     2 2   
     2     2     3 1   
     3     3     4 1   
     4     3     6 2   
     5     4     5 2   
     6     4    11 1   
     7     6     7 1   
     8     6     8 1   
     9     7    12 1   
    10     7    13 1   
    11     7    17 1   
    12     8     9 2   
    13     9    10 1   
    14     9    11 1   
    15    10    14 1   
    16    10    15 1   
    17    10    18 1   
    18    11    16 1   
@<TRIPOS>SUBSTRUCTURE
     1 B53         1 TEMP              0 ****  ****    0 ROOT
