@<TRIPOS>MOLECULE
B54
   38    39     1     0     0
SMALL
bcc


@<TRIPOS>ATOM
      1 O22         0.1950    0.2370    0.1250 o         1 B54     -0.830800
      2 C21         1.4250    0.5100    0.0290 c         1 B54      0.909200
      3 O23         2.1180    1.0110    0.9580 o         1 B54     -0.830800
      4 C18         2.1150    0.2190   -1.2960 ca        1 B54     -0.141600
      5 C19         3.4700    0.5180   -1.4700 ca        1 B54     -0.085500
      6 C20         4.1070    0.2730   -2.6840 ca        1 B54     -0.194500
      7 C17         1.3970   -0.3460   -2.3540 ca        1 B54     -0.085500
      8 C16         2.0140   -0.6100   -3.5760 ca        1 B54     -0.194500
      9 C15         3.3680   -0.2940   -3.7330 ca        1 B54      0.070100
     10 O14         4.0840   -0.5620   -4.9000 os        1 B54     -0.347900
     11 C13         3.2980   -0.5230   -6.0900 c3        1 B54      0.137400
     12 C12         4.2750   -0.3310   -7.2400 c3        1 B54     -0.108400
     13 C11         3.4860   -0.2440   -8.5430 c3        1 B54      0.211800
     14 N10         4.3330   -0.0910   -9.7030 nh        1 B54     -0.719000
     15 C4          3.8570    0.0360  -10.9760 cc        1 B54      0.531600
     16 C5          4.7520    0.1830  -12.0940 cd        1 B54     -0.355600
     17 N9          6.1530    0.1850  -11.8720 nf        1 B54      0.021700
     18 O24         6.9080    0.2970  -12.7500 o         1 B54     -0.183300
     19 C2          4.1790    0.3240  -13.4250 c         1 B54      0.729700
     20 O8          4.7960    0.4610  -14.4940 o         1 B54     -0.613500
     21 N2          2.7590    0.3110  -13.5310 n         1 B54     -0.514400
     22 C1          1.9680    0.1310  -12.3970 cd        1 B54      0.737800
     23 N1          2.4730    0.0260  -11.1460 nc        1 B54     -0.758300
     24 N7          0.5800    0.0030  -12.5610 nh        1 B54     -0.908800
     25 H19         4.0190    0.9590   -0.6210 ha        1 B54      0.155000
     26 H20         5.1690    0.5050   -2.8290 ha        1 B54      0.116500
     27 H17         0.3310   -0.5790   -2.1960 ha        1 B54      0.155000
     28 H16         1.4440   -1.0600   -4.3980 ha        1 B54      0.116500
     29 H13         2.7480   -1.4960   -6.1950 h1        1 B54      0.037200
     30 H13A        2.5570    0.3180   -6.0490 h1        1 B54      0.037200
     31 H12         4.8700    0.6030   -7.0690 hc        1 B54      0.062700
     32 H12A        4.9950   -1.1900   -7.2610 hc        1 B54      0.062700
     33 H11         2.8640   -1.1790   -8.6630 h1        1 B54      0.059700
     34 H11A        2.7760    0.6320   -8.4850 h1        1 B54      0.059700
     35 HN10        5.3180   -0.0740   -9.5550 hn        1 B54      0.466800
     36 HN7         0.1700    0.4720  -13.3350 hn        1 B54      0.432300
     37 HN7A        0.0390   -0.0040  -11.7250 hn        1 B54      0.432300
     38 H15         2.3580    0.3580  -14.4420 hn        1 B54      0.330500
@<TRIPOS>BOND
     1    1    2 1   
     2    2    3 1   
     3    2    4 1   
     4    4    5 ar  
     5    4    7 ar  
     6    5    6 ar  
     7    5   25 1   
     8    6    9 ar  
     9    6   26 1   
    10    7    8 ar  
    11    7   27 1   
    12    8    9 ar  
    13    8   28 1   
    14    9   10 1   
    15   10   11 1   
    16   11   12 1   
    17   11   29 1   
    18   11   30 1   
    19   12   13 1   
    20   12   31 1   
    21   12   32 1   
    22   13   14 1   
    23   13   33 1   
    24   13   34 1   
    25   14   15 1   
    26   14   35 1   
    27   15   16 2   
    28   15   23 1   
    29   16   17 1   
    30   16   19 1   
    31   17   18 2   
    32   19   20 2   
    33   19   21 1   
    34   21   22 1   
    35   21   38 1   
    36   22   23 2   
    37   22   24 1   
    38   24   36 1   
    39   24   37 1   
@<TRIPOS>SUBSTRUCTURE
     1 B54         1 TEMP              0 ****  ****    0 ROOT
