@<TRIPOS>MOLECULE
molecule
   39    40     1     0     0
SMALL
bcc


@<TRIPOS>ATOM
      1 O22          0.0000     0.0000     0.0000 o          1 B54      -0.818800
      2 C21          1.3480     0.0000     0.0000 c          1 B54       0.880200
      3 O23          1.9550     0.0000     1.0530 o          1 B54      -0.818800
      4 C18          2.0860    -0.0010    -1.2770 ca         1 B54      -0.121600
      5 C19          3.4840    -0.0010    -1.2770 ca         1 B54      -0.065000
      6 C20          4.1690    -0.0020    -2.4720 ca         1 B54      -0.211500
      7 C17          1.3900    -0.0070    -2.4880 ca         1 B54      -0.065000
      8 C16          2.0820    -0.0070    -3.6780 ca         1 B54      -0.211500
      9 C15          3.4730    -0.0030    -3.6750 ca         1 B54       0.088100
     10 O14          4.1520    -0.0030    -4.8500 os         1 B54      -0.339900
     11 C13          3.3730    -0.0030    -6.0490 c3         1 B54       0.156400
     12 C12          4.3060    -0.0040    -7.2620 c3         1 B54      -0.106400
     13 C11          3.4730    -0.0040    -8.5450 c3         1 B54       0.204800
     14 N10          4.3660    -0.0050    -9.7070 nu         1 B54      -0.678000
     15 C4           3.8450    -0.0060   -10.9700 cc         1 B54       0.490600
     16 C5           4.7230     0.1060   -12.1480 cd         1 B54       0.105500
     17 N9           6.0320     0.2090   -12.0240 n2         1 B54      -0.357000
     18 O24          6.7230     0.3950   -13.0090 o          1 B54      -0.151700
     19 C2           4.0710     0.0970   -13.4750 c          1 B54       0.683700
     20 O8           4.7230     0.1840   -14.4980 o          1 B54      -0.516500
     21 N2           2.7250    -0.0140   -13.5120 ns         1 B54      -0.453400
     22 C1           1.9990    -0.1110   -12.3690 cd         1 B54       0.551800
     23 N1           2.5350    -0.1120   -11.1640 nc         1 B54      -0.660300
     24 N7           0.6450    -0.2180   -12.4720 nz         1 B54      -0.747600
     25 H19          4.0280    -0.0000    -0.3400 ha         1 B54       0.158500
     26 H20          5.2520    -0.0000    -2.4740 ha         1 B54       0.110000
     27 H17          0.3060    -0.0100    -2.4910 ha         1 B54       0.158500
     28 H16          1.5430    -0.0100    -4.6180 ha         1 B54       0.110000
     29 H13          2.7480     0.8810    -6.0740 h1         1 B54       0.034200
     30 H13A         2.7490    -0.8880    -6.0740 h1         1 B54       0.034200
     31 H12          4.9300     0.8810    -7.2380 hc         1 B54       0.070700
     32 H12A         4.9310    -0.8880    -7.2370 hc         1 B54       0.070700
     33 H11          2.8480    -0.8890    -8.5700 h1         1 B54       0.063200
     34 H11A         2.8480     0.8800    -8.5710 h1         1 B54       0.063200
     35 HN10         5.3580     0.0050    -9.5750 hn         1 B54       0.503800
     36 HN7          0.2490    -0.3320   -11.5600 hn         1 B54       0.484133
     37 HN7A         0.4160    -1.0120   -13.0360 hn         1 B54       0.484133
     38 H15          2.2550    -0.0210   -14.3960 hn         1 B54       0.336500
     39 H73          0.2760     0.6100   -12.8950 hn         1 B54       0.484133
@<TRIPOS>BOND
     1     2     1 1
     2     2     3 1
     3     4     2 1
     4     5     4 ar
     5     5    25 1
     6     6     5 ar
     7     6    26 1
     8     7     4 ar
     9     7    27 1
    10     8     7 ar
    11     8    28 1
    12     9     6 ar
    13     9     8 ar
    14    10     9 1
    15    10    11 1
    16    11    12 1
    17    11    29 1
    18    11    30 1
    19    12    13 1
    20    12    31 1
    21    12    32 1
    22    13    14 1
    23    13    33 1
    24    13    34 1
    25    14    15 1
    26    14    35 1
    27    15    16 2
    28    15    23 1
    29    16    19 1
    30    17    16 1
    31    18    17 2
    32    19    20 2
    33    19    21 1
    34    22    21 1
    35    22    24 1
    36    23    22 2
    37    24    36 1
    38    24    37 1
    39    21    38 1
    40    39    24 1
@<TRIPOS>SUBSTRUCTURE
     1 B54         1 TEMP              0 ****  ****    0 ROOT
