@<TRIPOS>MOLECULE
molecule
   18    19     1     0     0
SMALL
bcc


@<TRIPOS>ATOM
      1 O1           0.0000     0.0000     0.0000 o          1 B55      -0.521500
      2 C5           1.2190     0.0000     0.0000 c          1 B55       0.623000
      3 C2           1.9420     0.0000     1.2140 cc         1 B55       0.310800
      4 N1           1.5850    -0.0010     2.5250 nc         1 B55      -0.601000
      5 N4           1.9120    -0.0050    -1.1600 ns         1 B55      -0.466400
      6 C4           3.2740    -0.0050    -1.1490 cc         1 B55       0.454800
      7 N3           3.9520    -0.0100    -2.3430 nz         1 B55      -0.726600
      8 N2           3.9580     0.0010    -0.0250 nd         1 B55      -0.552100
      9 C3           3.3400     0.0010     1.1610 cd         1 B55       0.025800
     10 N5           3.7740     0.0010     2.4630 na         1 B55      -0.243900
     11 C1           2.6650    -0.0000     3.2660 cd         1 B55       0.598800
     12 S1           2.6870    -0.0020     5.0290 sh         1 B55      -0.275100
     13 HN4          1.4210    -0.0080    -2.0320 hn         1 B55       0.351500
     14 HN3          4.9380    -0.0090    -2.1670 hn         1 B55       0.478467
     15 HN3A         3.7070    -0.8300    -2.8620 hn         1 B55       0.478467
     16 HN5          4.7270     0.0020     2.7700 hn         1 B55       0.340700
     17 HS1          1.8990     0.9660     5.4820 hs         1 B55       0.244800
     18 H33          3.6750     0.7820    -2.8870 hn         1 B55       0.478467
@<TRIPOS>BOND
     1     1     2 2
     2     2     3 1
     3     2     5 1
     4     3     4 1
     5     3     9 2
     6     4    11 2
     7     5     6 1
     8     6     7 1
     9     6     8 2
    10     8     9 1
    11     9    10 1
    12    10    11 1
    13    11    12 1
    14     5    13 1
    15     7    14 1
    16     7    15 1
    17    10    16 1
    18    12    17 1
    19    18     7 1
@<TRIPOS>SUBSTRUCTURE
     1 B55         1 TEMP              0 ****  ****    0 ROOT
