@<TRIPOS>MOLECULE
B55
   18    19     1     0     0
SMALL
bcc


@<TRIPOS>ATOM
      1 O1           0.0000     0.0000     0.0000 o          1 B55      -0.560500
      2 C5           1.2190     0.0000     0.0000 c          1 B55       0.520000
      3 C2           1.9420     0.0000     1.2140 cc         1 B55       0.284800
      4 N1           1.5850    -0.0010     2.5250 nc         1 B55      -0.494000
      5 N4           1.9120    -0.0050    -1.1600 ns         1 B55       0.000600
      6 C4           3.2740    -0.0050    -1.1490 cc         1 B55      -0.018200
      7 N3           3.9520    -0.0100    -2.3430 nz         1 B55       0.224400
      8 N2           3.9580     0.0010    -0.0250 nd         1 B55      -0.342100
      9 C3           3.3400     0.0010     1.1610 cd         1 B55      -0.252200
     10 N5           3.7740     0.0010     2.4630 na         1 B55       0.351100
     11 C1           2.6650    -0.0000     3.2660 cd         1 B55       0.384800
     12 S1           2.6870    -0.0020     5.0290 sh         1 B55      -0.324100
     13 HN4          1.4210    -0.0080    -2.0320 hn         1 B55       0.190500
     14 HN3          4.9380    -0.0090    -2.1670 hn         1 B55       0.216467
     15 HN3A         3.7070    -0.8300    -2.8620 hn         1 B55       0.216467
     16 HN5          4.7270     0.0020     2.7700 hn         1 B55       0.151700
     17 HS1          1.8990     0.9660     5.4820 hs         1 B55       0.234800
     18 H33          3.6750     0.7820    -2.8870 hn         1 B55       0.216467
@<TRIPOS>BOND
     1     1     2 2   
     2     2     3 1   
     3     2     5 1   
     4     3     4 1   
     5     3     9 2   
     6     4    11 2   
     7     5     6 1   
     8     5    13 1   
     9     6     7 1   
    10     6     8 2   
    11     7    14 1   
    12     7    15 1   
    13     7    18 1   
    14     8     9 1   
    15     9    10 1   
    16    10    11 1   
    17    10    16 1   
    18    11    12 1   
    19    12    17 1   
@<TRIPOS>SUBSTRUCTURE
     1 B55         1 TEMP              0 ****  ****    0 ROOT
