@<TRIPOS>MOLECULE
B56
   25    26     1     0     0
SMALL
bcc


@<TRIPOS>ATOM
      1 O9           0.0000     0.0000     0.0000 o          1 B56      -0.589500
      2 C8           1.2190     0.0000     0.0000 c          1 B56       0.581700
      3 N7           1.9110     0.0000     1.1590 ns         1 B56       0.017600
      4 C5           3.2720     0.0030     1.1510 cc         1 B56      -0.149200
      5 N6           3.9420    -0.0080     2.3420 nz         1 B56       0.266400
      6 N4           3.9660     0.0160     0.0280 nd         1 B56      -0.404300
      7 C10          1.9470    -0.0040    -1.2170 cc         1 B56       0.083400
      8 C3           3.3580     0.0210    -1.1520 cd         1 B56       0.072600
      9 N1           4.0680     0.0560    -2.3310 nh         1 B56      -0.356400
     10 C2           5.3940     0.6740    -2.4040 c3         1 B56       0.220100
     11 C16          3.4410    -0.5510    -3.5160 c3         1 B56       0.085500
     12 N11          1.3280    -0.0100    -2.4030 ne         1 B56      -0.405300
     13 C12          1.9710    -0.2200    -3.5150 cf         1 B56       0.464300
     14 C13          1.2470    -0.1550    -4.7840 c          1 B56       0.840300
     15 O15         -0.0730     0.1230    -4.7950 o          1 B56      -0.803300
     16 O14          1.8360    -0.3500    -5.8300 o          1 B56      -0.803300
     17 HN7          1.4200    -0.0020     2.0310 hn         1 B56       0.167500
     18 HN6          3.5640     0.6980     2.9440 hn         1 B56       0.191133
     19 HN6A         3.8390    -0.9040     2.7750 hn         1 B56       0.191133
     20 H2           6.0600     0.1830    -1.7040 h1         1 B56       0.009367
     21 H2A          5.3180     1.7250    -2.1530 h1         1 B56       0.009367
     22 H2B          5.7860     0.5700    -3.4090 h1         1 B56       0.009367
     23 H16          3.9010    -0.1530    -4.4130 h1         1 B56       0.055200
     24 H9           3.5700    -1.6260    -3.4820 h1         1 B56       0.055200
     25 H63          4.9160     0.1500     2.1780 hn         1 B56       0.191133
@<TRIPOS>BOND
     1     1     2 2   
     2     2     3 1   
     3     2     7 1   
     4     3     4 1   
     5     3    17 1   
     6     4     5 1   
     7     4     6 2   
     8     5    18 1   
     9     5    19 1   
    10     5    25 1   
    11     6     8 1   
    12     7     8 2   
    13     7    12 1   
    14     8     9 1   
    15     9    10 1   
    16     9    11 1   
    17    10    20 1   
    18    10    21 1   
    19    10    22 1   
    20    11    13 1   
    21    11    23 1   
    22    11    24 1   
    23    12    13 2   
    24    13    14 1   
    25    14    15 1   
    26    14    16 1   
@<TRIPOS>SUBSTRUCTURE
     1 B56         1 TEMP              0 ****  ****    0 ROOT
