@<TRIPOS>MOLECULE
molecule
   19    19     1     0     0
SMALL
bcc


@<TRIPOS>ATOM
      1 O7           0.0000     0.0000     0.0000 o          1 B57      -0.406500
      2 C1           1.2210     0.0000     0.0000 c          1 B57       0.678700
      3 C6           1.9320     0.0000     1.2050 cc         1 B57      -0.200300
      4 N8           1.2180    -0.0000     2.5020 no         1 B57       0.264100
      5 O10          1.8440    -0.1070     3.5410 o          1 B57      -0.099000
      6 O9           0.0050     0.1060     2.5300 o          1 B57      -0.099000
      7 N2           1.9080    -0.0050    -1.1620 ns         1 B57      -0.419400
      8 C3           3.2690    -0.0050    -1.1510 cc         1 B57       0.620800
      9 N11          3.9480    -0.0110    -2.3400 nz         1 B57      -0.756600
     10 N4           3.9440     0.0000    -0.0220 nd         1 B57      -0.651300
     11 C5           3.3190     0.0000     1.1610 cd         1 B57       0.298600
     12 N12          4.0490     0.0010     2.3320 nz         1 B57      -0.671400
     13 HN2          1.4150    -0.0090    -2.0330 hn         1 B57       0.396500
     14 HN11         3.7050    -0.8310    -2.8590 hn         1 B57       0.510467
     15 HN1A         3.7030     0.8030    -2.8680 hn         1 B57       0.510467
     16 HN12         3.8490    -0.8310     2.8500 hn         1 B57       0.504467
     17 HN1B         3.8020     0.8020     2.8780 hn         1 B57       0.504467
     18 H113         4.9320     0.0280    -2.1630 hn         1 B57       0.510467
     19 H123         5.0250     0.0450     2.1150 hn         1 B57       0.504467
@<TRIPOS>BOND
     1     1     2 2
     2     2     3 1
     3     2     7 1
     4     3     4 1
     5     3    11 2
     6     4     5 1
     7     4     6 1
     8     7     8 1
     9     7    13 1
    10     8     9 1
    11     8    10 2
    12     9    14 1
    13     9    15 1
    14    10    11 1
    15    11    12 1
    16    12    16 1
    17    12    17 1
    18    18     9 1
    19    19    12 1
@<TRIPOS>SUBSTRUCTURE
     1 B57         1 TEMP              0 ****  ****    0 ROOT
