@<TRIPOS>MOLECULE
B58
   17    18     1     0     0
SMALL
bcc


@<TRIPOS>ATOM
      1 N10          0.0000     0.0000     0.0000 nv         1 B58      -0.563500
      2 C6           1.3930     0.0000     0.0000 ca         1 B58       0.463200
      3 N1           2.0610     0.0000     1.1400 nb         1 B58      -0.311000
      4 N2           3.3420     0.0000     1.1960 nb         1 B58      -0.340000
      5 C5           2.1050    -0.0060    -1.2130 ca         1 B58      -0.024900
      6 N7           1.7720    -0.0120    -2.5230 nc         1 B58      -0.496100
      7 C8           2.8530    -0.0140    -3.2490 cd         1 B58       0.230700
      8 N9           3.9520    -0.0110    -2.4470 na         1 B58       0.298700
      9 C4           3.5080    -0.0050    -1.1470 ca         1 B58      -0.420500
     10 C3           4.1070     0.0000     0.1170 ca         1 B58       0.467200
     11 N11          5.4960     0.0010     0.2380 nv         1 B58      -0.539500
     12 HN10        -0.5000     0.6550    -0.5670 hn         1 B58       0.272800
     13 HN1A        -0.5000    -0.6670     0.5540 hn         1 B58       0.272800
     14 H8           2.8740    -0.0190    -4.3320 h5         1 B58       0.030800
     15 HN9          4.9060    -0.0110    -2.7490 hn         1 B58       0.124700
     16 HN11         6.0690    -0.1280    -0.5720 hn         1 B58       0.267300
     17 HN1B         5.9200     0.1460     1.1330 hn         1 B58       0.267300
@<TRIPOS>BOND
     1     1     2 1   
     2     1    12 1   
     3     1    13 1   
     4     2     3 ar  
     5     2     5 ar  
     6     3     4 ar  
     7     4    10 ar  
     8     5     6 1   
     9     5     9 ar  
    10     6     7 2   
    11     7     8 1   
    12     7    14 1   
    13     8     9 1   
    14     8    15 1   
    15     9    10 ar  
    16    10    11 1   
    17    11    16 1   
    18    11    17 1   
@<TRIPOS>SUBSTRUCTURE
     1 B58         1 TEMP              0 ****  ****    0 ROOT
