@<TRIPOS>MOLECULE
B59
   25    26     1     0     0
SMALL
bcc


@<TRIPOS>ATOM
      1 O17          0.0000     0.0000     0.0000 o          1 B59      -0.596500
      2 C1           1.2160     0.0000     0.0000 c          1 B59       0.644700
      3 N2           1.9100     0.0000     1.1590 n          1 B59      -0.091400
      4 C16          1.1870    -0.0020     2.4330 c3         1 B59       0.071300
      5 C6           1.9750    -0.0050    -1.2680 cc         1 B59      -0.180600
      6 C5           3.3800    -0.0040    -1.1950 cd         1 B59      -0.088800
      7 N4           3.9790     0.0020     0.0320 n          1 B59       0.047000
      8 C14          5.4420     0.0040     0.1170 c3         1 B59       0.036300
      9 C3           3.2530     0.0000     1.1600 c          1 B59       0.607500
     10 O15          3.8340    -0.0010     2.2270 o          1 B59      -0.686500
     11 N7           1.3460    -0.0100    -2.4330 nc         1 B59      -0.215300
     12 C8           2.0300    -0.0150    -3.5670 cd         1 B59       0.099300
     13 C11          1.3250    -0.0200    -4.8530 c          1 B59       0.595600
     14 O12          0.1120    -0.0210    -4.8800 o          1 B59      -0.532100
     15 C9           3.4990    -0.0140    -3.5280 c          1 B59       0.497200
     16 O13          4.1430    -0.0170    -4.5610 o          1 B59      -0.649500
     17 N10          4.1240    -0.0090    -2.3310 ns         1 B59       0.057900
     18 H16          1.4050    -0.9170     2.9710 h1         1 B59       0.032700
     19 H16A         0.1220     0.0610     2.2440 h1         1 B59       0.032700
     20 H16B         1.4990     0.8490     3.0270 h1         1 B59       0.032700
     21 H14          5.8330     0.8740    -0.3960 h1         1 B59       0.037700
     22 H14A         5.7420     0.0330     1.1580 h1         1 B59       0.037700
     23 H14B         5.8320    -0.8940    -0.3460 h1         1 B59       0.037700
     24 H11          1.8870    -0.0230    -5.7780 h4         1 B59      -0.013800
     25 HN10         5.1230    -0.0080    -2.2810 hn         1 B59       0.188500
@<TRIPOS>BOND
     1     1     2 2   
     2     2     3 1   
     3     2     5 1   
     4     3     4 1   
     5     3     9 1   
     6     4    18 1   
     7     4    19 1   
     8     4    20 1   
     9     5     6 2   
    10     5    11 1   
    11     6     7 1   
    12     6    17 1   
    13     7     8 1   
    14     7     9 1   
    15     8    21 1   
    16     8    22 1   
    17     8    23 1   
    18     9    10 2   
    19    11    12 2   
    20    12    13 1   
    21    12    15 1   
    22    13    14 2   
    23    13    24 1   
    24    15    16 2   
    25    15    17 1   
    26    17    25 1   
@<TRIPOS>SUBSTRUCTURE
     1 B59         1 TEMP              0 ****  ****    0 ROOT
