@<TRIPOS>MOLECULE
molecule
   25    26     1     0     0
SMALL
bcc


@<TRIPOS>ATOM
      1 O17          0.0000     0.0000     0.0000 o          1 B59      -0.556500
      2 C1           1.2160     0.0000     0.0000 c          1 B59       0.729700
      3 N2           1.9100     0.0000     1.1590 n          1 B59      -0.474400
      4 C16          1.1870    -0.0020     2.4330 c3         1 B59       0.100300
      5 C6           1.9750    -0.0050    -1.2680 cc         1 B59      -0.115600
      6 C5           3.3800    -0.0040    -1.1950 cd         1 B59       0.222200
      7 N4           3.9790     0.0020     0.0320 n          1 B59      -0.370000
      8 C14          5.4420     0.0040     0.1170 c3         1 B59       0.071300
      9 C3           3.2530     0.0000     1.1600 c          1 B59       0.820500
     10 O15          3.8340    -0.0010     2.2270 o          1 B59      -0.633500
     11 N7           1.3460    -0.0100    -2.4330 nc         1 B59      -0.373300
     12 C8           2.0300    -0.0150    -3.5670 cd         1 B59       0.200300
     13 C11          1.3250    -0.0200    -4.8530 c          1 B59       0.512600
     14 O12          0.1120    -0.0210    -4.8800 o          1 B59      -0.486100
     15 C9           3.4990    -0.0140    -3.5280 c          1 B59       0.581200
     16 O13          4.1430    -0.0170    -4.5610 o          1 B59      -0.606500
     17 N10          4.1240    -0.0090    -2.3310 ns         1 B59      -0.416100
     18 H16          1.4050    -0.9170     2.9710 h1         1 B59       0.067367
     19 H16A         0.1220     0.0610     2.2440 h1         1 B59       0.067367
     20 H16B         1.4990     0.8490     3.0270 h1         1 B59       0.067367
     21 H14          5.8330     0.8740    -0.3960 h1         1 B59       0.070700
     22 H14A         5.7420     0.0330     1.1580 h1         1 B59       0.070700
     23 H14B         5.8320    -0.8940    -0.3460 h1         1 B59       0.070700
     24 H11          1.8870    -0.0230    -5.7780 h4         1 B59       0.032200
     25 HN10         5.1230    -0.0080    -2.2810 hn         1 B59       0.347500
@<TRIPOS>BOND
     1     1     2 2
     2     2     3 1
     3     2     5 1
     4     3     4 1
     5     3     9 1
     6     5     6 2
     7     5    11 1
     8     6     7 1
     9     6    17 1
    10     7     8 1
    11     7     9 1
    12     9    10 2
    13    11    12 2
    14    12    13 1
    15    12    15 1
    16    13    14 2
    17    15    16 2
    18    15    17 1
    19     4    18 1
    20     4    19 1
    21     4    20 1
    22     8    21 1
    23     8    22 1
    24     8    23 1
    25    13    24 1
    26    17    25 1
@<TRIPOS>SUBSTRUCTURE
     1 B59         1 TEMP              0 ****  ****    0 ROOT
