@<TRIPOS>MOLECULE
molecule
   33    35     1     0     0
SMALL
bcc


@<TRIPOS>ATOM
      1 CAF          0.0000     0.0000     0.0000 c3         1 B5A      -0.073400
      2 CAD          1.5300     0.0000     0.0000 c3         1 B5A       0.159300
      3 NAL          2.0210     0.0000     1.3850 n7         1 B5A      -0.819200
      4 CAE          1.5880     1.2060     2.1010 c3         1 B5A       0.159300
      5 CAG          0.0590     1.2440     2.1630 c3         1 B5A      -0.073400
      6 CAP         -0.5070     1.2420     0.7400 c3         1 B5A      -0.096700
      7 CAH         -2.0350     1.2170     0.7980 c3         1 B5A       0.086300
      8 NAQ         -2.5760     1.3360    -0.5590 na         1 B5A      -0.022800
      9 NAK         -2.8660     0.2740    -1.4220 nc         1 B5A      -0.505100
     10 CAC         -3.3330     0.7360    -2.5470 cd         1 B5A       0.399800
     11 C5          -3.3710     2.1450    -2.4700 ca         1 B5A      -0.543500
     12 C4          -2.8900     2.5010    -1.1940 ca         1 B5A       0.524800
     13 N3          -2.8300     3.7910    -0.8660 nb         1 B5A      -0.802000
     14 C2          -3.2160     4.7170    -1.7170 ca         1 B5A       0.753900
     15 N1          -3.6770     4.4310    -2.9210 nb         1 B5A      -0.836000
     16 C6          -3.7670     3.1750    -3.3440 ca         1 B5A       0.791200
     17 NAA         -4.2510     2.8860    -4.6050 nv         1 B5A      -1.014500
     18 H1          -0.3600    -0.8900     0.5010 hc         1 B5A       0.053950
     19 H2          -0.3600     0.0170    -1.0210 hc         1 B5A       0.053950
     20 H3           1.8890    -0.8860    -0.5090 h1         1 B5A       0.032200
     21 H4           1.8890     0.8860    -0.5090 h1         1 B5A       0.032200
     22 H5           3.0210    -0.0470     1.3840 hn         1 B5A       0.352800
     23 H7           1.9880     1.1900     3.1080 h1         1 B5A       0.032200
     24 H8           1.9480     2.0840     1.5780 h1         1 B5A       0.032200
     25 H9          -0.2590     2.1430     2.6760 hc         1 B5A       0.053950
     26 H10         -0.3010     0.3720     2.6950 hc         1 B5A       0.053950
     27 H11         -0.1740     2.1310     0.2200 hc         1 B5A       0.063700
     28 H12         -2.3650     0.2840     1.2380 h1         1 B5A       0.072700
     29 H13         -2.3870     2.0460     1.4010 h1         1 B5A       0.072700
     30 H14         -3.6400     0.1400    -3.3980 h4         1 B5A       0.055800
     31 H15         -3.1600     5.7560    -1.4140 h5         1 B5A       0.060100
     32 H16         -4.9690     3.4550    -5.0080 hn         1 B5A       0.444800
     33 H17         -3.8610     2.1280    -5.1290 hn         1 B5A       0.444800
@<TRIPOS>BOND
     1     4     3 1
     2     4     5 1
     3     3     2 1
     4     2     1 1
     5     5     6 1
     6     6     1 1
     7     6     7 1
     8     7     8 1
     9     8     9 1
    10     8    12 1
    11     9    10 2
    12    12    13 ar
    13    12    11 ar
    14    13    14 ar
    15    10    11 1
    16    11    16 ar
    17    14    15 ar
    18    16    15 ar
    19    16    17 1
    20     1    18 1
    21     1    19 1
    22     2    20 1
    23     2    21 1
    24     3    22 1
    25     4    23 1
    26     4    24 1
    27     5    25 1
    28     5    26 1
    29     6    27 1
    30     7    28 1
    31     7    29 1
    32    10    30 1
    33    14    31 1
    34    17    32 1
    35    17    33 1
@<TRIPOS>SUBSTRUCTURE
     1 B5A         1 TEMP              0 ****  ****    0 ROOT
