@<TRIPOS>MOLECULE
B5A
   33    35     1     0     0
SMALL
bcc


@<TRIPOS>ATOM
      1 CAF          0.0000     0.0000     0.0000 c3         1 B5A      -0.024900
      2 CAD          1.5300     0.0000     0.0000 c3         1 B5A       0.149300
      3 NAL          2.0210     0.0000     1.3850 n7         1 B5A      -0.580200
      4 CAE          1.5880     1.2060     2.1010 c3         1 B5A       0.149300
      5 CAG          0.0590     1.2440     2.1630 c3         1 B5A      -0.024900
      6 CAP         -0.5070     1.2420     0.7400 c3         1 B5A      -0.073700
      7 CAH         -2.0350     1.2170     0.7980 c3         1 B5A      -0.001700
      8 NAQ         -2.5760     1.3360    -0.5590 na         1 B5A       0.387200
      9 NAK         -2.8660     0.2740    -1.4220 nc         1 B5A      -0.638100
     10 CAC         -3.3330     0.7360    -2.5470 cd         1 B5A       0.466800
     11 C5          -3.3710     2.1450    -2.4700 ca         1 B5A      -0.563500
     12 C4          -2.8900     2.5010    -1.1940 ca         1 B5A       0.337800
     13 N3          -2.8300     3.7910    -0.8660 nb         1 B5A      -0.692000
     14 C2          -3.2160     4.7170    -1.7170 ca         1 B5A       0.707900
     15 N1          -3.6770     4.4310    -2.9210 nb         1 B5A      -0.742000
     16 C6          -3.7670     3.1750    -3.3440 ca         1 B5A       0.611200
     17 NAA         -4.2510     2.8860    -4.6050 nv         1 B5A      -0.525500
     18 H1          -0.3600    -0.8900     0.5010 hc         1 B5A       0.026450
     19 H2          -0.3600     0.0170    -1.0210 hc         1 B5A       0.026450
     20 H3           1.8890    -0.8860    -0.5090 h1         1 B5A       0.005700
     21 H4           1.8890     0.8860    -0.5090 h1         1 B5A       0.005700
     22 H5           3.0210    -0.0470     1.3840 hn         1 B5A       0.250800
     23 H7           1.9880     1.1900     3.1080 h1         1 B5A       0.005700
     24 H8           1.9480     2.0840     1.5780 h1         1 B5A       0.005700
     25 H9          -0.2590     2.1430     2.6760 hc         1 B5A       0.026450
     26 H10         -0.3010     0.3720     2.6950 hc         1 B5A       0.026450
     27 H11         -0.1740     2.1310     0.2200 hc         1 B5A       0.039700
     28 H12         -2.3650     0.2840     1.2380 h1         1 B5A       0.043200
     29 H13         -2.3870     2.0460     1.4010 h1         1 B5A       0.043200
     30 H14         -3.6400     0.1400    -3.3980 h4         1 B5A       0.008800
     31 H15         -3.1600     5.7560    -1.4140 h5         1 B5A      -0.004900
     32 H16         -4.9690     3.4550    -5.0080 hn         1 B5A       0.274800
     33 H17         -3.8610     2.1280    -5.1290 hn         1 B5A       0.274800
@<TRIPOS>BOND
     1     1     2 1   
     2     1     6 1   
     3     1    18 1   
     4     1    19 1   
     5     2     3 1   
     6     2    20 1   
     7     2    21 1   
     8     3     4 1   
     9     3    22 1   
    10     4     5 1   
    11     4    23 1   
    12     4    24 1   
    13     5     6 1   
    14     5    25 1   
    15     5    26 1   
    16     6     7 1   
    17     6    27 1   
    18     7     8 1   
    19     7    28 1   
    20     7    29 1   
    21     8     9 1   
    22     8    12 1   
    23     9    10 2   
    24    10    11 1   
    25    10    30 1   
    26    11    12 ar  
    27    11    16 ar  
    28    12    13 ar  
    29    13    14 ar  
    30    14    15 ar  
    31    14    31 1   
    32    15    16 ar  
    33    16    17 1   
    34    17    32 1   
    35    17    33 1   
@<TRIPOS>SUBSTRUCTURE
     1 B5A         1 TEMP              0 ****  ****    0 ROOT
