@<TRIPOS>MOLECULE
molecule
   47    49     1     0     0
SMALL
bcc


@<TRIPOS>ATOM
      1 C10          0.0000     0.0000     0.0000 c3         1 B5B       0.037300
      2 C15         -3.2200     4.8160     0.3810 cc         1 B5B       0.314200
      3 C17         -2.5120     3.4530     1.8960 cd         1 B5B       0.394400
      4 C20          7.1860    -1.0040     0.7720 ca         1 B5B      -0.131000
      5 C21          7.4650    -0.1920     1.8570 ca         1 B5B      -0.130000
      6 C22          6.5050     0.6800     2.3390 ca         1 B5B      -0.131000
      7 C01          2.2890    -1.4480     4.2180 c3         1 B5B      -0.090100
      8 C02          2.3440    -1.4490     2.6880 c3         1 B5B      -0.074700
      9 C03          1.1710    -2.2600     2.1360 c3         1 B5B      -0.090100
     10 C04          2.2570    -0.0100     2.1740 c3         1 B5B      -0.001100
     11 C05          2.4340     0.0000     0.6780 cd         1 B5B      -0.212900
     12 C06          3.6110     0.0000     0.0000 cc         1 B5B       0.369800
     13 N07          3.3270     0.0100    -1.3170 nc         1 B5B      -0.679000
     14 C08          2.0330     0.0160    -1.4760 cd         1 B5B       0.394400
     15 N09          1.4410     0.0040    -0.2620 na         1 B5B      -0.184900
     16 C11         -0.4820     1.4350     0.2250 c3         1 B5B      -0.126400
     17 C12         -1.9870     1.4300     0.4980 c3         1 B5B       0.044300
     18 N13         -2.4480     2.8040     0.7130 na         1 B5B      -0.191900
     19 C14         -2.9010     3.6680    -0.2470 cd         1 B5B      -0.278600
     20 N16         -2.9700     4.6570     1.6890 nc         1 B5B      -0.693000
     21 C18          4.9750    -0.0760     0.6510 ca         1 B5B      -0.094500
     22 C19          5.9480    -0.9490     0.1650 ca         1 B5B      -0.114500
     23 C23          5.2640     0.7440     1.7400 ca         1 B5B      -0.114500
     24 H1          -0.2050    -0.5920     0.8830 h1         1 B5B       0.066200
     25 H2          -0.5200    -0.4270    -0.8490 h1         1 B5B       0.066200
     26 H3          -3.6100     5.7110    -0.0890 h4         1 B5B       0.042100
     27 H4          -2.2240     3.0430     2.8570 h5         1 B5B       0.063100
     28 H5           7.9420    -1.6840     0.3980 ha         1 B5B       0.129000
     29 H6           8.4390    -0.2390     2.3300 ha         1 B5B       0.128000
     30 H7           6.7300     1.3160     3.1870 ha         1 B5B       0.129000
     31 H8           3.0870    -0.8270     4.6070 hc         1 B5B       0.034533
     32 H9           2.4080    -2.4610     4.5840 hc         1 B5B       0.034533
     33 H10          1.3340    -1.0560     4.5450 hc         1 B5B       0.034533
     34 H11          3.2760    -1.8940     2.3610 hc         1 B5B       0.068700
     35 H12          1.1740    -3.2480     2.5800 hc         1 B5B       0.034533
     36 H13          1.2670    -2.3470     1.0600 hc         1 B5B       0.034533
     37 H14          0.2410    -1.7590     2.3760 hc         1 B5B       0.034533
     38 H15          1.2890     0.4050     2.4260 hc         1 B5B       0.054200
     39 H16          3.0360     0.5850     2.6340 hc         1 B5B       0.054200
     40 H17          1.5160     0.0240    -2.4280 h5         1 B5B       0.064100
     41 H18         -0.2780     2.0270    -0.6590 hc         1 B5B       0.070200
     42 H19          0.0370     1.8620     1.0740 hc         1 B5B       0.070200
     43 H20         -2.1920     0.8380     1.3820 h1         1 B5B       0.062200
     44 H21         -2.5070     1.0030    -0.3510 h1         1 B5B       0.062200
     45 H22         -2.9850     3.4680    -1.3090 h4         1 B5B       0.173000
     46 H23          5.7300    -1.5860    -0.6830 ha         1 B5B       0.137500
     47 H24          4.5130     1.4270     2.1190 ha         1 B5B       0.137500
@<TRIPOS>BOND
     1     5     4 ar
     2     5     6 ar
     3     4    22 ar
     4     6    23 ar
     5    22    21 ar
     6     7     8 1
     7    23    21 ar
     8    21    12 1
     9     9     8 1
    10     8    10 1
    11    12    11 2
    12    12    13 1
    13    10    11 1
    14    11    15 1
    15    13    14 2
    16    15    14 1
    17    15     1 1
    18    16     1 1
    19    16    17 1
    20    17    18 1
    21    18    19 1
    22    18     3 1
    23    19     2 2
    24     3    20 2
    25     2    20 1
    26     1    24 1
    27     1    25 1
    28     2    26 1
    29     3    27 1
    30     4    28 1
    31     5    29 1
    32     6    30 1
    33     7    31 1
    34     7    32 1
    35     7    33 1
    36     8    34 1
    37     9    35 1
    38     9    36 1
    39     9    37 1
    40    10    38 1
    41    10    39 1
    42    14    40 1
    43    16    41 1
    44    16    42 1
    45    17    43 1
    46    17    44 1
    47    19    45 1
    48    22    46 1
    49    23    47 1
@<TRIPOS>SUBSTRUCTURE
     1 B5B         1 TEMP              0 ****  ****    0 ROOT
