@<TRIPOS>MOLECULE
molecule
   23    24     1     0     0
SMALL
bcc


@<TRIPOS>ATOM
      1 C1           0.0000     0.0000     0.0000 ca         1 B5D       0.207600
      2 N1           1.0850     0.2760    -2.6920 n7         1 B5D      -0.941100
      3 O1           2.7220    -1.3330    -1.7420 o          1 B5D      -0.625300
      4 S1           2.2580    -0.0060    -1.5390 sy         1 B5D       1.418200
      5 Cl1          2.2970    -0.0100     3.8870 cl         1 B5D      -0.097400
      6 C2           1.3880     0.0000     0.0000 ca         1 B5D      -0.327500
      7 N2          -0.7430     0.0190    -1.1780 nu         1 B5D      -0.758600
      8 O2           3.1110     1.1310    -1.5340 o          1 B5D      -0.625300
      9 C3           2.0910     0.0000     1.1860 ca         1 B5D       0.002000
     10 C4           1.4130    -0.0090     2.3930 ca         1 B5D      -0.008600
     11 C5          -0.6760    -0.0140     1.2200 ca         1 B5D      -0.150000
     12 C6           0.0290    -0.0190     2.4050 ca         1 B5D      -0.058000
     13 C7          -0.0040    -1.9160    -2.4740 c3         1 B5D      -0.114100
     14 C8          -0.2100    -0.4000    -2.4710 c3         1 B5D       0.493700
     15 HN1          1.2480     0.8660    -3.4830 hn         1 B5D       0.462800
     16 HN2         -1.1930     0.9080    -1.2750 hn         1 B5D       0.398800
     17 H3           3.1740     0.0060     1.1740 ha         1 B5D       0.156000
     18 H5          -1.7600    -0.0220     1.2360 ha         1 B5D       0.150000
     19 H6          -0.5020    -0.0300     3.3490 ha         1 B5D       0.150000
     20 H7          -0.9350    -2.4070    -2.7300 hc         1 B5D       0.062033
     21 H7A          0.3160    -2.2390    -1.4910 hc         1 B5D       0.062033
     22 H7B          0.7540    -2.1760    -3.2030 hc         1 B5D       0.062033
     23 H8          -0.9020    -0.1210    -3.2560 h2         1 B5D       0.082700
@<TRIPOS>BOND
     1     1     6 ar
     2     1     7 1
     3     1    11 ar
     4     2     4 1
     5     2    14 1
     6     3     4 2
     7     4     6 1
     8     4     8 2
     9     5    10 1
    10     6     9 ar
    11     7    14 1
    12     9    10 ar
    13    10    12 ar
    14    11    12 ar
    15    13    14 1
    16     2    15 1
    17     7    16 1
    18     9    17 1
    19    11    18 1
    20    12    19 1
    21    13    20 1
    22    13    21 1
    23    13    22 1
    24    14    23 1
@<TRIPOS>SUBSTRUCTURE
     1 B5D         1 TEMP              0 ****  ****    0 ROOT
