@<TRIPOS>MOLECULE
B5E
   55    58     1     0     0
SMALL
bcc


@<TRIPOS>ATOM
      1 F2           0.0000     0.0000     0.0000 f          1 B5E      -0.208967
      2 C24          1.3990     0.0000     0.0000 c3         1 B5E       0.648200
      3 F            1.8650     0.0000     1.3190 f          1 B5E      -0.208967
      4 F1           1.8650    -1.1420    -0.6600 f          1 B5E      -0.208967
      5 C23          1.9010     1.2310    -0.7100 ca         1 B5E      -0.207300
      6 C8           3.2660     1.5110    -0.7400 cp         1 B5E       0.046000
      7 C7           4.2280     0.5990    -0.0740 cp         1 B5E      -0.072000
      8 C6           4.5130    -0.6440    -0.6320 ca         1 B5E      -0.080000
      9 C5           5.4140    -1.4870    -0.0110 ca         1 B5E      -0.104000
     10 C4           6.0320    -1.0970     1.1630 ca         1 B5E      -0.088000
     11 C3           5.7520     0.1370     1.7220 ca         1 B5E      -0.101000
     12 C2           4.8540     0.9870     1.1090 ca         1 B5E      -0.055300
     13 C1           4.5550     2.3340     1.7150 c3         1 B5E       0.015900
     14 C            3.3180     2.2270     2.6100 c3         1 B5E      -0.001100
     15 C22          1.0100     2.0790    -1.3370 ca         1 B5E      -0.024000
     16 C11          1.4700     3.2090    -1.9890 ca         1 B5E      -0.106300
     17 C10          2.8230     3.4940    -2.0190 ca         1 B5E      -0.063000
     18 C9           3.7230     2.6500    -1.3990 ca         1 B5E      -0.103000
     19 C12          0.4930     4.1310    -2.6720 c3         1 B5E       0.205100
     20 N            0.0460     5.1610    -1.7240 n7         1 B5E      -0.588200
     21 C13         -0.9090     6.0790    -2.3550 c3         1 B5E       0.142800
     22 C14         -1.3500     7.1340    -1.3390 c3         1 B5E      -0.009700
     23 C15         -2.3310     8.0770    -1.9870 cc         1 B5E       0.200800
     24 N2          -3.5770     8.3530    -1.5150 na         1 B5E       0.271700
     25 C21         -4.1550     9.2570    -2.3840 ca         1 B5E      -0.277200
     26 C16         -3.1980     9.5000    -3.3830 ca         1 B5E       0.065400
     27 N1          -2.1070     8.7520    -3.0770 nd         1 B5E      -0.521100
     28 C20         -5.3850     9.8980    -2.4340 ca         1 B5E      -0.086000
     29 C19         -5.6590    10.7700    -3.4660 ca         1 B5E      -0.090000
     30 C18         -4.7130    11.0100    -4.4530 ca         1 B5E      -0.118000
     31 C17         -3.4970    10.3890    -4.4190 ca         1 B5E      -0.039000
     32 H1           4.0290    -0.9510    -1.5510 ha         1 B5E       0.117000
     33 H2           5.6360    -2.4540    -0.4440 ha         1 B5E       0.105000
     34 H3           6.7380    -1.7610     1.6470 ha         1 B5E       0.102000
     35 H4           6.2400     0.4370     2.6410 ha         1 B5E       0.108000
     36 H5           4.3680     3.0520     0.9260 hc         1 B5E       0.020700
     37 H6           5.4020     2.6600     2.3070 hc         1 B5E       0.020700
     38 H7           2.4310     2.4480     2.0290 hc         1 B5E       0.008033
     39 H8           3.2470     1.2220     3.0090 hc         1 B5E       0.008033
     40 H9           3.4000     2.9340     3.4260 hc         1 B5E       0.008033
     41 H10         -0.0500     1.8600    -1.3160 ha         1 B5E       0.127000
     42 H11          3.1780     4.3800    -2.5310 ha         1 B5E       0.107000
     43 H12          4.7820     2.8740    -1.4250 ha         1 B5E       0.119000
     44 H13         -0.3620     3.5620    -3.0160 h1         1 B5E       0.013700
     45 H14          0.9750     4.6050    -3.5190 h1         1 B5E       0.013700
     46 H15          0.8380     5.6770    -1.3950 hn         1 B5E       0.255800
     47 H17         -0.4370     6.5660    -3.2000 h1         1 B5E       0.020200
     48 H18         -1.7740     5.5220    -2.6960 h1         1 B5E       0.020200
     49 H19         -1.8220     6.6470    -0.4940 hc         1 B5E       0.024700
     50 H20         -0.4860     7.6910    -0.9980 hc         1 B5E       0.024700
     51 H21         -3.9450     8.0720    -0.6280 hn         1 B5E       0.127700
     52 H23         -6.1260     9.7140    -1.6660 ha         1 B5E       0.100000
     53 H24         -6.6190    11.2700    -3.5070 ha         1 B5E       0.103000
     54 H25         -4.9420    11.6980    -5.2580 ha         1 B5E       0.104000
     55 H26         -2.7660    10.5840    -5.1950 ha         1 B5E       0.109000
@<TRIPOS>BOND
     1     1     2 1   
     2     2     3 1   
     3     2     4 1   
     4     2     5 1   
     5     5     6 ar  
     6     5    15 ar  
     7     6     7 1   
     8     6    18 ar  
     9     7     8 ar  
    10     7    12 ar  
    11     8     9 ar  
    12     8    32 1   
    13     9    10 ar  
    14     9    33 1   
    15    10    11 ar  
    16    10    34 1   
    17    11    12 ar  
    18    11    35 1   
    19    12    13 1   
    20    13    14 1   
    21    13    36 1   
    22    13    37 1   
    23    14    38 1   
    24    14    39 1   
    25    14    40 1   
    26    15    16 ar  
    27    15    41 1   
    28    16    17 ar  
    29    16    19 1   
    30    17    18 ar  
    31    17    42 1   
    32    18    43 1   
    33    19    20 1   
    34    19    44 1   
    35    19    45 1   
    36    20    21 1   
    37    20    46 1   
    38    21    22 1   
    39    21    47 1   
    40    21    48 1   
    41    22    23 1   
    42    22    49 1   
    43    22    50 1   
    44    23    24 1   
    45    23    27 2   
    46    24    25 1   
    47    24    51 1   
    48    25    26 ar  
    49    25    28 ar  
    50    26    27 1   
    51    26    31 ar  
    52    28    29 ar  
    53    28    52 1   
    54    29    30 ar  
    55    29    53 1   
    56    30    31 ar  
    57    30    54 1   
    58    31    55 1   
@<TRIPOS>SUBSTRUCTURE
     1 B5E         1 TEMP              0 ****  ****    0 ROOT
