@<TRIPOS>MOLECULE
molecule
   42    43     1     0     0
SMALL
bcc


@<TRIPOS>ATOM
      1 C1           0.0000     0.0000     0.0000 cp         1 B5F      -0.084000
      2 C2           1.3980     0.0000     0.0000 ca         1 B5F       0.215600
      3 O2           2.0790     0.0020    -1.1750 os         1 B5F      -0.457500
      4 P2           2.7370    -1.4180    -1.5530 p5         1 B5F       1.201400
      5 C3           2.0880     0.0000     1.2010 ca         1 B5F      -0.230500
      6 C4           1.3940    -0.0010     2.4020 ca         1 B5F       0.148100
      7 O4           2.0760    -0.0010     3.5780 os         1 B5F      -0.532500
      8 P4           2.4040     1.4700     4.1440 p5         1 B5F       1.220900
      9 C5           0.0070    -0.0010     2.4090 ca         1 B5F      -0.230500
     10 C6          -0.6930    -0.0010     1.2140 ca         1 B5F       0.215600
     11 O6          -2.0520    -0.0020     1.2220 os         1 B5F      -0.457500
     12 P6          -2.7060     1.4170     1.6060 p5         1 B5F       1.201400
     13 C1'         -0.7440     0.0060    -1.2810 cp         1 B5F       0.053000
     14 C2'         -1.5340    -1.0860    -1.6350 ca         1 B5F      -0.087500
     15 O21          3.6010    -1.8730    -0.4400 o          1 B5F      -0.936500
     16 O22          1.5710    -2.5010    -1.8040 o          1 B5F      -0.936500
     17 O23          3.6210    -1.2610    -2.8900 o          1 B5F      -0.936500
     18 C3'         -2.2290    -1.0760    -2.8350 ca         1 B5F       0.148600
     19 O3'         -3.0000    -2.1400    -3.1800 os         1 B5F      -0.532500
     20 P3'         -4.5250    -2.0350    -2.6750 p5         1 B5F       1.186400
     21 O31         -5.3020    -3.4010    -3.0260 o          1 B5F      -0.932667
     22 O32         -4.5450    -1.8190    -1.2100 o          1 B5F      -0.932667
     23 O33         -5.2510    -0.8000    -3.4090 o          1 B5F      -0.932667
     24 C4'         -2.1380     0.0180    -3.6820 ca         1 B5F      -0.193000
     25 O41          3.3210     1.3450     5.4620 o          1 B5F      -0.950167
     26 O42          3.1250     2.2480     3.1120 o          1 B5F      -0.950167
     27 O43          1.0280     2.2200     4.5170 o          1 B5F      -0.950167
     28 C5'         -1.3520     1.1070    -3.3330 ca         1 B5F       0.148600
     29 O5'         -1.2660     2.1770    -4.1650 os         1 B5F      -0.532500
     30 P5'         -2.3770     3.3100    -3.8940 p5         1 B5F       1.186400
     31 O51         -2.3140     3.7340    -2.4770 o          1 B5F      -0.932667
     32 O52         -2.0960     4.5780    -4.8460 o          1 B5F      -0.932667
     33 O53         -3.8390     2.7140    -4.2100 o          1 B5F      -0.932667
     34 C6'         -0.6580     1.1060    -2.1330 ca         1 B5F      -0.087500
     35 O61         -2.3450     2.4990     0.4710 o          1 B5F      -0.936500
     36 O62         -4.3050     1.2610     1.7100 o          1 B5F      -0.936500
     37 O63         -2.1680     1.8720     2.9090 o          1 B5F      -0.936500
     38 H3           3.1720     0.0000     1.2020 ha         1 B5F       0.117000
     39 H5          -0.5290    -0.0020     3.3500 ha         1 B5F       0.117000
     40 H2'         -1.5540    -1.9670    -1.0050 ha         1 B5F       0.120500
     41 H4'         -2.6820     0.0230    -4.6190 ha         1 B5F       0.089000
     42 H6'         -0.0450     1.9570    -1.8610 ha         1 B5F       0.120500
@<TRIPOS>BOND
     1    13     1 1
     2     1     2 ar
     3     1    10 ar
     4     3     2 1
     5     2     5 ar
     6     4     3 1
     7    15     4 1
     8     4    17 1
     9     4    16 1
    10     5     6 ar
    11     5    38 1
    12     9     6 ar
    13     6     7 1
    14     7     8 1
    15    26     8 1
    16     8    27 1
    17     8    25 1
    18    10     9 ar
    19     9    39 1
    20    10    11 1
    21    11    12 1
    22    37    12 1
    23    35    12 1
    24    12    36 1
    25    34    13 ar
    26    14    13 ar
    27    18    14 ar
    28    14    40 1
    29    24    18 ar
    30    19    18 1
    31    20    19 1
    32    22    20 1
    33    21    20 1
    34    20    23 1
    35    24    28 ar
    36    24    41 1
    37    29    28 1
    38    28    34 ar
    39    29    30 1
    40    31    30 1
    41    30    33 1
    42    30    32 1
    43    34    42 1
@<TRIPOS>SUBSTRUCTURE
     1 B5F         1 TEMP              0 ****  ****    0 ROOT
