@<TRIPOS>MOLECULE
B5F
   42    43     1     0     0
SMALL
bcc


@<TRIPOS>ATOM
      1 C1         -0.2380    0.3230    0.0970 cp        1 B5F     -0.273000
      2 C2          1.1380   -0.1380    0.0870 ca        1 B5F      0.348100
      3 O2          1.7020   -0.6710   -1.0170 os        1 B5F     -0.530500
      4 P2          3.2620   -1.4140   -1.4880 p5        1 B5F      1.395900
      5 C3          1.9520   -0.0480    1.2580 ca        1 B5F     -0.427000
      6 C4          1.4890    0.4520    2.4870 ca        1 B5F      0.358100
      7 O4          2.2310    0.3580    3.6280 os        1 B5F     -0.632500
      8 P4          3.3750    0.9350    4.8350 p5        1 B5F      1.455900
      9 C5          0.1580    0.9030    2.5020 ca        1 B5F     -0.427000
     10 C6         -0.7080    0.8410    1.3680 ca        1 B5F      0.348100
     11 O6         -1.9740    1.2790    1.5340 os        1 B5F     -0.530500
     12 P6         -3.0010    1.9100    2.8590 p5        1 B5F      1.395900
     13 C1'        -1.1160    0.2710   -1.1280 cp        1 B5F      0.156000
     14 C2'        -1.9210   -0.8510   -1.4310 ca        1 B5F     -0.271500
     15 O21         3.4680   -2.6640   -0.6620 o         1 B5F     -0.960167
     16 O22         3.1420   -1.7770   -2.9520 o         1 B5F     -0.960167
     17 O23         4.3570   -0.3870   -1.3070 o         1 B5F     -0.960167
     18 C3'        -2.7580   -0.9200   -2.5840 ca        1 B5F      0.321600
     19 O3'        -3.4880   -2.0540   -2.7690 os        1 B5F     -0.616500
     20 P3'        -4.6390   -3.0560   -3.6600 p5        1 B5F      1.443400
     21 O31        -4.1010   -3.3760   -5.0370 o         1 B5F     -0.973500
     22 O32        -4.7340   -4.3220   -2.8300 o         1 B5F     -0.973500
     23 O33        -5.9870   -2.3760   -3.7280 o         1 B5F     -0.973500
     24 C4'        -2.7890    0.1820   -3.4710 ca        1 B5F     -0.376000
     25 O41         4.5040   -0.0770    4.8830 o         1 B5F     -0.978500
     26 O42         3.8900    2.3200    4.5160 o         1 B5F     -0.978500
     27 O43         2.6530    0.9060    6.1680 o         1 B5F     -0.978500
     28 C5'        -2.0000    1.3280   -3.2110 ca        1 B5F      0.321600
     29 O5'        -1.9780    2.4250   -4.0170 os        1 B5F     -0.616500
     30 P5'        -2.4810    3.3390   -5.4410 p5        1 B5F      1.443400
     31 O51        -1.7100    4.6400   -5.3250 o         1 B5F     -0.973500
     32 O52        -2.0820    2.6090   -6.7040 o         1 B5F     -0.973500
     33 O53        -3.9680    3.6100   -5.3940 o         1 B5F     -0.973500
     34 C6'        -1.1810    1.3460   -2.0440 ca        1 B5F     -0.271500
     35 O61        -2.3880    3.1920    3.3740 o         1 B5F     -0.960167
     36 O62        -4.3560    2.2010    2.2520 o         1 B5F     -0.960167
     37 O63        -3.1310    0.8380    3.9180 o         1 B5F     -0.960167
     38 H3          2.9800   -0.4240    1.1560 ha        1 B5F      0.116000
     39 H5         -0.2860    1.3080    3.4230 ha        1 B5F      0.116000
     40 H2'        -1.9100   -1.7140   -0.7550 ha        1 B5F      0.097000
     41 H4'        -3.4250    0.1480   -4.3610 ha        1 B5F      0.097000
     42 H6'        -0.5770    2.2420   -1.8580 ha        1 B5F      0.097000
@<TRIPOS>BOND
     1    1    2 ar  
     2    1   10 ar  
     3    1   13 1   
     4    2    3 1   
     5    2    5 ar  
     6    3    4 1   
     7    4   15 1   
     8    4   16 1   
     9    4   17 1   
    10    5    6 ar  
    11    5   38 1   
    12    6    7 1   
    13    6    9 ar  
    14    7    8 1   
    15    8   25 1   
    16    8   26 1   
    17    8   27 1   
    18    9   10 ar  
    19    9   39 1   
    20   10   11 1   
    21   11   12 1   
    22   12   35 1   
    23   12   36 1   
    24   12   37 1   
    25   13   14 ar  
    26   13   34 ar  
    27   14   18 ar  
    28   14   40 1   
    29   18   19 1   
    30   18   24 ar  
    31   19   20 1   
    32   20   21 1   
    33   20   22 1   
    34   20   23 1   
    35   24   28 ar  
    36   24   41 1   
    37   28   29 1   
    38   28   34 ar  
    39   29   30 1   
    40   30   31 1   
    41   30   32 1   
    42   30   33 1   
    43   34   42 1   
@<TRIPOS>SUBSTRUCTURE
     1 B5F         1 TEMP              0 ****  ****    0 ROOT
