@<TRIPOS>MOLECULE
molecule
   61    65     1     0     0
SMALL
bcc


@<TRIPOS>ATOM
      1 C4           0.0000     0.0000     0.0000 c3         1 B5G       0.141800
      2 C6          -0.2630    -0.7300     2.2960 c3         1 B5G       0.239100
      3 C10          7.2350     1.1770     4.8580 ca         1 B5G      -0.098000
      4 C20          8.3090     3.3250     9.4600 c          1 B5G       0.800100
      5 C24          3.4770     0.2660     3.1140 cc         1 B5G       0.541300
      6 C28          8.9660     5.5960     9.7270 ca         1 B5G       0.070600
      7 C1           1.1840    -0.3300     2.4610 cc         1 B5G      -0.211700
      8 C2           2.0060     0.0000     1.4470 cd         1 B5G       0.412600
      9 C3           1.5320     0.0000     0.0000 c3         1 B5G      -0.092700
     10 N5          -0.4940    -1.0670     0.8810 n3         1 B5G      -0.698600
     11 C9           8.4500     1.4690     5.4430 ca         1 B5G      -0.134000
     12 C11          6.1540     0.7950     5.6550 ca         1 B5G      -0.146600
     13 C12          6.3100     0.7120     7.0400 ca         1 B5G      -0.044000
     14 C27         -1.9160    -1.3390     0.6310 c3         1 B5G       0.146100
     15 C7           7.5300     1.0070     7.6110 ca         1 B5G      -0.101300
     16 C8           8.5980     1.3860     6.8170 ca         1 B5G      -0.083000
     17 C13          4.8510     0.4800     5.0350 c          1 B5G       0.676700
     18 O14          3.9110     0.1480     5.7300 o          1 B5G      -0.588100
     19 C15          7.7000     0.9190     9.1060 c3         1 B5G       0.178000
     20 N16          8.5690     2.0080     9.5760 n          1 B5G      -0.509800
     21 C17          9.7710     1.4210    10.1960 c3         1 B5G       0.078000
     22 C18          9.3370     0.0010    10.6380 c3         1 B5G      -0.088400
     23 C19          8.3920    -0.4110     9.4770 c3         1 B5G      -0.085400
     24 O21          7.2810     3.6970     8.9280 o          1 B5G      -0.631100
     25 N22          9.1880     4.2300     9.9340 ns         1 B5G      -0.485100
     26 N23          4.7030     0.5610     3.6970 ns         1 B5G      -0.515400
     27 N25          3.2300     0.3120     1.8450 nd         1 B5G      -0.743000
     28 S26          2.0770    -0.2140     3.9690 ss         1 B5G      -0.072300
     29 C29          7.6730     6.0970     9.7370 ca         1 B5G      -0.093000
     30 C30          7.4570     7.4600     9.5310 ca         1 B5G      -0.001000
     31 C31          8.5440     8.3100     9.3180 ca         1 B5G      -0.113000
     32 C32          9.8260     7.8020     9.3110 ca         1 B5G      -0.114000
     33 C33         10.0410     6.4520     9.5200 ca         1 B5G      -0.154000
     34 C34          6.1250     7.9850     9.5400 cg         1 B5G       0.243800
     35 N35          5.0660     8.3980     9.5660 n1         1 B5G      -0.361800
     36 H1          -0.3260    -0.4090    -0.9490 h1         1 B5G       0.044200
     37 H2          -0.3260     1.0170     0.1810 h1         1 B5G       0.044200
     38 H3          -0.8700     0.0470     2.7460 h1         1 B5G       0.046700
     39 H4          -0.4160    -1.6440     2.8550 h1         1 B5G       0.046700
     40 H5           7.1220     1.2430     3.7830 ha         1 B5G       0.128000
     41 H6           1.8600    -0.7440    -0.7160 hc         1 B5G       0.061200
     42 H7           1.8600     0.9720    -0.3500 hc         1 B5G       0.061200
     43 H9           9.2900     1.7660     4.8270 ha         1 B5G       0.136000
     44 H10          5.4750     0.4160     7.6620 ha         1 B5G       0.159000
     45 H11         -2.4910    -0.4360     0.7930 h1         1 B5G       0.034700
     46 H12         -2.0460    -1.6710    -0.3920 h1         1 B5G       0.034700
     47 H13         -2.2600    -2.1120     1.3070 h1         1 B5G       0.034700
     48 H14          9.5520     1.6160     7.2740 ha         1 B5G       0.133000
     49 H15          6.7360     0.9800     9.5970 h1         1 B5G       0.076700
     50 H16         10.6310     1.5640     9.5520 h1         1 B5G       0.044700
     51 H17          9.9450     1.8650    11.1680 h1         1 B5G       0.044700
     52 H18         10.1610    -0.6930    10.5290 hc         1 B5G       0.061200
     53 H19          8.9880     0.0200    11.6630 hc         1 B5G       0.061200
     54 H20          7.6510    -1.1570     9.7390 hc         1 B5G       0.063700
     55 H21          9.0050    -0.7560     8.6530 hc         1 B5G       0.063700
     56 H22         10.0720     3.9280    10.2940 hn         1 B5G       0.320500
     57 H23          5.4710     0.8510     3.1240 hn         1 B5G       0.344500
     58 H24          6.8330     5.4240     9.8580 ha         1 B5G       0.185000
     59 H25          8.3800     9.3690     9.1580 ha         1 B5G       0.142000
     60 H26         10.6700     8.4610     9.1460 ha         1 B5G       0.138000
     61 H27         11.0490     6.0560     9.4810 ha         1 B5G       0.130000
@<TRIPOS>BOND
     1    32    31 ar
     2    32    33 ar
     3    31    30 ar
     4    33     6 ar
     5     3    11 ar
     6     3    12 ar
     7    30    34 1
     8    30    29 ar
     9    34    35 3
    10    18    17 2
    11    11    16 ar
    12    17    12 1
    13    17    26 1
    14    28     5 1
    15    28     7 1
    16    12    13 ar
    17    24     4 2
    18     2     7 1
    19     2    10 1
    20     5    26 1
    21     5    27 2
    22     7     8 2
    23     6    29 ar
    24     6    25 1
    25    27     8 1
    26     8     9 1
    27    16    15 ar
    28     1     9 1
    29     1    10 1
    30    10    14 1
    31    13    15 ar
    32     4    25 1
    33     4    20 1
    34    15    19 1
    35    20    19 1
    36    20    21 1
    37    19    23 1
    38    21    22 1
    39    23    22 1
    40     1    36 1
    41     1    37 1
    42     2    38 1
    43     2    39 1
    44     3    40 1
    45     9    41 1
    46     9    42 1
    47    11    43 1
    48    13    44 1
    49    14    45 1
    50    14    46 1
    51    14    47 1
    52    16    48 1
    53    19    49 1
    54    21    50 1
    55    21    51 1
    56    22    52 1
    57    22    53 1
    58    23    54 1
    59    23    55 1
    60    25    56 1
    61    26    57 1
    62    29    58 1
    63    31    59 1
    64    32    60 1
    65    33    61 1
@<TRIPOS>SUBSTRUCTURE
     1 B5G         1 TEMP              0 ****  ****    0 ROOT
