@<TRIPOS>MOLECULE
molecule
   22    23     1     0     0
SMALL
bcc


@<TRIPOS>ATOM
      1 N10          0.0000     0.0000     0.0000 ns         1 B5H      -0.495100
      2 CA           1.4010     0.0000     0.0000 cc         1 B5H      -0.075600
      3 CB           2.2240    -0.0000    -1.0780 cf         1 B5H      -0.071200
      4 CG           1.6690    -0.1800    -2.4270 ca         1 B5H      -0.063800
      5 CD1          2.3670     0.2950    -3.5420 ca         1 B5H      -0.097000
      6 CE1          1.8400     0.1240    -4.8050 ca         1 B5H      -0.121000
      7 CZ           0.6240    -0.5140    -4.9710 ca         1 B5H      -0.095000
      8 CE2         -0.0740    -0.9890    -3.8720 ca         1 B5H      -0.016900
      9 CD2          0.4440    -0.8300    -2.6020 ca         1 B5H      -0.118000
     10 C            1.7860     0.0000     1.4210 c          1 B5H       0.705700
     11 N11          0.6350     0.0010     2.1220 ns         1 B5H      -0.582500
     12 C2          -0.4100     0.0020     1.2800 c          1 B5H       0.809500
     13 Br1         -1.7340    -1.8590    -4.1130 br         1 B5H      -0.082100
     14 O2          -1.5750     0.0010     1.6290 o          1 B5H      -0.628500
     15 O3           2.9170    -0.0000     1.8720 o          1 B5H      -0.573500
     16 H10         -0.5900    -0.0000    -0.8080 hn         1 B5H       0.377500
     17 HB           3.2980     0.0000    -0.9350 ha         1 B5H       0.170000
     18 HD1          3.3190     0.7960    -3.4150 ha         1 B5H       0.142000
     19 HD2         -0.1020    -1.2010    -1.7430 ha         1 B5H       0.151000
     20 HE1          2.3800     0.4920    -5.6690 ha         1 B5H       0.142000
     21 HZ           0.2150    -0.6430    -5.9660 ha         1 B5H       0.148000
     22 H11          0.5690     0.0020     3.1210 hn         1 B5H       0.370500
@<TRIPOS>BOND
     1     1     2 1
     2     1    12 1
     3     2     3 2
     4     2    10 1
     5     3     4 1
     6     4     5 ar
     7     4     9 ar
     8     5     6 ar
     9     6     7 ar
    10     7     8 ar
    11     8     9 ar
    12     8    13 1
    13    10    11 1
    14    10    15 2
    15    11    12 1
    16    12    14 2
    17     1    16 1
    18     3    17 1
    19     5    18 1
    20     9    19 1
    21     6    20 1
    22     7    21 1
    23    11    22 1
@<TRIPOS>SUBSTRUCTURE
     1 B5H         1 TEMP              0 ****  ****    0 ROOT
