@<TRIPOS>MOLECULE
B5H
   22    23     1     0     0
SMALL
bcc


@<TRIPOS>ATOM
      1 N10          0.0000     0.0000     0.0000 ns         1 B5H      -0.072100
      2 CA           1.4010     0.0000     0.0000 cc         1 B5H      -0.238600
      3 CB           2.2240    -0.0000    -1.0780 cf         1 B5H      -0.013200
      4 CG           1.6690    -0.1800    -2.4270 ca         1 B5H      -0.065800
      5 CD1          2.3670     0.2950    -3.5420 ca         1 B5H      -0.072000
      6 CE1          1.8400     0.1240    -4.8050 ca         1 B5H      -0.089000
      7 CZ           0.6240    -0.5140    -4.9710 ca         1 B5H      -0.074000
      8 CE2         -0.0740    -0.9890    -3.8720 ca         1 B5H       0.037100
      9 CD2          0.4440    -0.8300    -2.6020 ca         1 B5H      -0.111000
     10 C            1.7860     0.0000     1.4210 c          1 B5H       0.624700
     11 N11          0.6350     0.0010     2.1220 ns         1 B5H      -0.160500
     12 C2          -0.4100     0.0020     1.2800 c          1 B5H       0.593500
     13 Br1         -1.7340    -1.8590    -4.1130 br         1 B5H      -0.114100
     14 O2          -1.5750     0.0010     1.6290 o          1 B5H      -0.677500
     15 O3           2.9170    -0.0000     1.8720 o          1 B5H      -0.612500
     16 H10         -0.5900    -0.0000    -0.8080 hn         1 B5H       0.227500
     17 HB           3.2980     0.0000    -0.9350 ha         1 B5H       0.134000
     18 HD1          3.3190     0.7960    -3.4150 ha         1 B5H       0.113000
     19 HD2         -0.1020    -1.2010    -1.7430 ha         1 B5H       0.130000
     20 HE1          2.3800     0.4920    -5.6690 ha         1 B5H       0.111000
     21 HZ           0.2150    -0.6430    -5.9660 ha         1 B5H       0.119000
     22 H11          0.5690     0.0020     3.1210 hn         1 B5H       0.211500
@<TRIPOS>BOND
     1     1     2 1   
     2     1    12 1   
     3     1    16 1   
     4     2     3 2   
     5     2    10 1   
     6     3     4 1   
     7     3    17 1   
     8     4     5 ar  
     9     4     9 ar  
    10     5     6 ar  
    11     5    18 1   
    12     6     7 ar  
    13     6    20 1   
    14     7     8 ar  
    15     7    21 1   
    16     8     9 ar  
    17     8    13 1   
    18     9    19 1   
    19    10    11 1   
    20    10    15 2   
    21    11    12 1   
    22    11    22 1   
    23    12    14 2   
@<TRIPOS>SUBSTRUCTURE
     1 B5H         1 TEMP              0 ****  ****    0 ROOT
