@<TRIPOS>MOLECULE
B5M
   52    55     1     0     0
SMALL
bcc


@<TRIPOS>ATOM
      1 C13          0.0000     0.0000     0.0000 c3         1 B5M       0.148100
      2 C20         -7.2440    -0.4710    -3.4310 ca         1 B5M      -0.021300
      3 C21         -8.5870    -0.7270    -3.2610 ca         1 B5M      -0.161000
      4 C22         -9.4180     0.2340    -2.7070 ca         1 B5M      -0.071000
      5 C24         -7.5590     1.7310    -2.4800 ca         1 B5M       0.182100
      6 C26         -6.3470    -1.5180    -4.0400 c3         1 B5M       0.049200
      7 C02          0.2800    -0.1880     6.8560 ca         1 B5M       0.586200
      8 C03         -0.0400    -0.2480     5.4890 ca         1 B5M      -0.242200
      9 C05         -0.8270    -0.6020     3.5000 cc         1 B5M       0.270700
     10 C07          0.7280     0.5150     4.5930 ca         1 B5M       0.269800
     11 C09          1.9840     1.2880     6.3560 ca         1 B5M       0.672900
     12 C11          0.6800     0.8450     2.0840 c3         1 B5M       0.149800
     13 C14         -0.5310     0.5990    -1.3040 c3         1 B5M       0.313400
     14 C18         -5.2810     1.0470    -3.2280 c          1 B5M       0.784700
     15 C19         -6.7160     0.7630    -3.0440 ca         1 B5M      -0.135600
     16 C23         -8.9090     1.4580    -2.3210 ca         1 B5M      -0.220000
     17 C30          1.5500     0.0000     0.0000 c3         1 B5M       0.132100
     18 C32          1.8440     0.0000     1.5250 c3         1 B5M       0.114100
     19 N04         -0.9700    -0.9060     4.7560 nd         1 B5M      -0.521100
     20 N06          0.2090     0.2720     3.3470 na         1 B5M       0.197000
     21 N08          1.7200     1.2610     5.0670 nb         1 B5M      -0.661000
     22 N10          1.2940     0.5830     7.2360 nb         1 B5M      -0.757000
     23 O12         -0.3750     0.8230     1.1160 os         1 B5M      -0.357600
     24 O15         -1.9590     0.5440    -1.3060 os         1 B5M      -0.508200
     25 O27         -4.8900     1.5490    -4.2640 o          1 B5M      -0.559000
     26 O31          2.0640     1.1780    -0.6230 oh         1 B5M      -0.537800
     27 O33          3.1010     0.6200     1.8000 oh         1 B5M      -0.548800
     28 P16         -2.8560     1.0890    -2.5270 p5         1 B5M       0.916800
     29 H1          -0.3730    -1.0080     0.1370 h1         1 B5M       0.015700
     30 H3         -10.4730     0.0240    -2.5790 ha         1 B5M       0.087000
     31 H4          -5.6140    -1.8350    -3.3080 hc         1 B5M       0.016700
     32 H5          -5.8400    -1.1020    -4.9020 hc         1 B5M       0.016700
     33 H6          -6.9420    -2.3700    -4.3470 hc         1 B5M       0.016700
     34 H7          -1.4400    -0.9840     2.6930 h5         1 B5M       0.048800
     35 H8           2.8030     1.9030     6.7080 h5         1 B5M      -0.010900
     36 H9           1.0110     1.8650     2.2390 h2         1 B5M       0.079700
     37 H10         -0.2090     1.6300    -1.3860 h1         1 B5M       0.002200
     38 H11         -0.1470     0.0330    -2.1440 h1         1 B5M       0.002200
     39 H12         -9.5650     2.2030    -1.8870 ha         1 B5M       0.100000
     40 H13          1.9360    -0.8970    -0.4680 h1         1 B5M       0.005700
     41 H14          1.8090    -1.0080     1.9210 h1         1 B5M       0.012700
     42 H19          2.7980     0.9500    -1.1700 ho         1 B5M       0.382000
     43 H20          3.7740    -0.0390     1.8420 ho         1 B5M       0.381000
     44 O25         -7.0580     2.9330    -2.1000 oh         1 B5M      -0.455100
     45 N01         -0.4410    -0.9180     7.7850 nv         1 B5M      -0.497500
     46 O17         -4.4040     0.7490    -2.2500 os         1 B5M      -0.454500
     47 O28         -2.4260     0.4370    -3.7840 o          1 B5M      -0.635500
     48 O29         -2.6710     2.6820    -2.6590 o          1 B5M      -0.635500
     49 H2          -8.9950    -1.6850    -3.5610 ha         1 B5M       0.099000
     50 H15         -0.1960    -0.8750     8.7540 hn         1 B5M       0.272300
     51 H17         -7.6960     3.6070    -2.2700 ho         1 B5M       0.392000
     52 H16         -1.2050    -1.4910     7.4870 hn         1 B5M       0.272300
@<TRIPOS>BOND
     1     1    13 1   
     2     1    17 1   
     3     1    23 1   
     4     1    29 1   
     5     2     3 ar  
     6     2     6 1   
     7     2    15 ar  
     8     3     4 ar  
     9     3    49 1   
    10     4    16 ar  
    11     4    30 1   
    12     5    15 ar  
    13     5    16 ar  
    14     5    44 1   
    15     6    31 1   
    16     6    32 1   
    17     6    33 1   
    18     7     8 ar  
    19     7    22 ar  
    20     7    45 1   
    21     8    10 ar  
    22     8    19 1   
    23     9    19 2   
    24     9    20 1   
    25     9    34 1   
    26    10    20 1   
    27    10    21 ar  
    28    11    21 ar  
    29    11    22 ar  
    30    11    35 1   
    31    12    18 1   
    32    12    20 1   
    33    12    23 1   
    34    12    36 1   
    35    13    24 1   
    36    13    37 1   
    37    13    38 1   
    38    14    15 1   
    39    14    25 2   
    40    14    46 1   
    41    16    39 1   
    42    17    18 1   
    43    17    26 1   
    44    17    40 1   
    45    18    27 1   
    46    18    41 1   
    47    24    28 1   
    48    26    42 1   
    49    27    43 1   
    50    28    46 1   
    51    28    47 1   
    52    28    48 1   
    53    44    51 1   
    54    45    50 1   
    55    45    52 1   
@<TRIPOS>SUBSTRUCTURE
     1 B5M         1 TEMP              0 ****  ****    0 ROOT
