@<TRIPOS>MOLECULE
B5N
   44    46     1     0     0
SMALL
bcc


@<TRIPOS>ATOM
      1 C01          0.0000     0.0000     0.0000 ca         1 B5N      -0.065000
      2 C02          1.3830     0.0000     0.0000 ca         1 B5N      -0.132500
      3 C03         -0.6910     0.0060     1.1970 ca         1 B5N      -0.107300
      4 C04          2.0740     0.0000     1.1990 ca         1 B5N       0.105900
      5 C05         -0.0010     0.0050     2.3960 ca         1 B5N      -0.065000
      6 C06          1.3810    -0.0000     2.3970 ca         1 B5N      -0.132500
      7 C08         -2.1980     0.0120     1.1960 c3         1 B5N       0.215100
      8 C10         -4.5890    -2.8670     1.6110 c3         1 B5N       0.045500
      9 C11         -4.1420    -1.4110     1.4350 c3         1 B5N       0.128800
     10 C13         -2.7100    -3.5430     0.0650 c3         1 B5N       0.045500
     11 C14         -2.3390    -2.0600    -0.0500 c3         1 B5N       0.128800
     12 C15         -4.9790    -4.4190    -0.2480 c          1 B5N       0.617700
     13 C16         -4.4720    -5.2820    -1.3350 ca         1 B5N      -0.151600
     14 C17         -4.5420    -5.9990    -3.6260 ca         1 B5N      -0.112000
     15 C18         -5.0200    -5.1900    -2.6160 ca         1 B5N      -0.032300
     16 C19         -3.5230    -6.8990    -3.3730 ca         1 B5N      -0.079000
     17 C20         -2.9720    -6.9910    -2.1070 ca         1 B5N      -0.117000
     18 C21         -3.4400    -6.1880    -1.0870 ca         1 B5N      -0.077000
     19 C23         -6.1310    -4.2100    -2.8940 c3         1 B5N       0.049200
     20 F07          3.4260    -0.0000     1.2010 f          1 B5N      -0.128900
     21 N09         -2.6930    -1.3710     1.1980 n3         1 B5N      -0.536600
     22 N12         -4.1270    -3.6400     0.4480 n          1 B5N      -0.154800
     23 O22         -6.1650    -4.4100     0.0200 o          1 B5N      -0.648100
     24 H1          -0.5420    -0.0000    -0.9380 ha         1 B5N       0.111500
     25 H2           1.9250    -0.0020    -0.9380 ha         1 B5N       0.119500
     26 H3          -0.5440     0.0070     3.3330 ha         1 B5N       0.111500
     27 H4           1.9210    -0.0000     3.3360 ha         1 B5N       0.119500
     28 H5          -2.5580     0.5260     2.0790 h1         1 B5N       0.014700
     29 H6          -2.5560     0.5220     0.3100 h1         1 B5N       0.014700
     30 H7          -4.1520    -3.2740     2.5150 h1         1 B5N       0.038450
     31 H8          -5.6700    -2.9100     1.6710 h1         1 B5N       0.038450
     32 H9          -4.3750    -0.8520     2.3330 h1         1 B5N       0.020200
     33 H10         -4.6580    -0.9760     0.5880 h1         1 B5N       0.020200
     34 H11         -2.5580    -4.0300    -0.8910 h1         1 B5N       0.038450
     35 H12         -2.0960    -4.0140     0.8220 h1         1 B5N       0.038450
     36 H13         -2.8820    -1.6150    -0.8740 h1         1 B5N       0.020200
     37 H14         -1.2730    -1.9690    -0.2210 h1         1 B5N       0.020200
     38 H15         -4.9680    -5.9310    -4.6200 ha         1 B5N       0.110000
     39 H16         -3.1520    -7.5320    -4.1700 ha         1 B5N       0.103000
     40 H17         -2.1720    -7.6960    -1.9160 ha         1 B5N       0.106000
     41 H18         -3.0070    -6.2610    -0.0970 ha         1 B5N       0.109000
     42 H19         -7.0130    -4.4960    -2.3330 hc         1 B5N       0.017367
     43 H20         -6.3590    -4.2150    -3.9530 hc         1 B5N       0.017367
     44 H21         -5.8190    -3.2170    -2.5960 hc         1 B5N       0.017367
@<TRIPOS>BOND
     1     1     2 ar  
     2     1     3 ar  
     3     1    24 1   
     4     2     4 ar  
     5     2    25 1   
     6     3     5 ar  
     7     3     7 1   
     8     4     6 ar  
     9     4    20 1   
    10     5     6 ar  
    11     5    26 1   
    12     6    27 1   
    13     7    21 1   
    14     7    28 1   
    15     7    29 1   
    16     8     9 1   
    17     8    22 1   
    18     8    30 1   
    19     8    31 1   
    20     9    21 1   
    21     9    32 1   
    22     9    33 1   
    23    10    11 1   
    24    10    22 1   
    25    10    34 1   
    26    10    35 1   
    27    11    21 1   
    28    11    36 1   
    29    11    37 1   
    30    12    13 1   
    31    12    22 1   
    32    12    23 2   
    33    13    15 ar  
    34    13    18 ar  
    35    14    15 ar  
    36    14    16 ar  
    37    14    38 1   
    38    15    19 1   
    39    16    17 ar  
    40    16    39 1   
    41    17    18 ar  
    42    17    40 1   
    43    18    41 1   
    44    19    42 1   
    45    19    43 1   
    46    19    44 1   
@<TRIPOS>SUBSTRUCTURE
     1 B5N         1 TEMP              0 ****  ****    0 ROOT
