@<TRIPOS>MOLECULE
B5P
   55    58     1     0     0
SMALL
bcc


@<TRIPOS>ATOM
      1 C1           0.0000     0.0000     0.0000 c3         1 B5P       0.003400
      2 C2           1.5300     0.0000     0.0000 c3         1 B5P      -0.047700
      3 C3           2.0400     0.0000     1.4430 c3         1 B5P       0.003400
      4 C4           2.0390    -1.2490    -0.7200 c3         1 B5P      -0.044400
      5 C5           1.6350    -1.1880    -2.1950 c3         1 B5P       0.014000
      6 C6           1.3450    -3.4840    -2.9490 c          1 B5P       0.634700
      7 C7           1.8460    -4.6720    -3.6420 cc         1 B5P      -0.382800
      8 N1           2.1230    -2.3840    -2.8850 n          1 B5P       0.023700
      9 N2           3.8600    -3.4810    -4.1060 na         1 B5P       0.332900
     10 C8           3.1130    -4.6270    -4.2070 cd         1 B5P       0.149000
     11 O2           3.6110    -5.7060    -4.8430 oh         1 B5P      -0.423100
     12 N3           4.2960    -1.4380    -3.5200 nc         1 B5P      -0.637000
     13 C9           5.1260    -3.1680    -4.5540 cd         1 B5P      -0.442600
     14 C10          5.3700    -1.9000    -4.1800 cc         1 B5P       0.396200
     15 C11          3.3770    -2.3770    -3.4660 cd         1 B5P       0.212400
     16 C12          1.0230    -5.8900    -3.7370 ce         1 B5P       0.689500
     17 C13         -0.6850    -8.1920    -3.3700 ca         1 B5P      -0.181500
     18 C14         -1.0250    -6.9260    -2.9060 ca         1 B5P       0.060600
     19 C15         -2.1350    -6.7730    -2.0870 ca         1 B5P      -0.131000
     20 O6          -4.5660   -11.6580    -0.3090 o          1 B5P      -0.586300
     21 S2          -3.7820   -10.4730    -0.2800 s6         1 B5P       0.953900
     22 O5          -4.3510    -9.2280     0.1040 o          1 B5P      -0.586300
     23 C18         -2.2250   -10.7610     0.6030 c3         1 B5P       0.017700
     24 C17         -2.5540    -9.1340    -2.2070 ca         1 B5P       0.003600
     25 C19         -1.4420    -9.2900    -3.0270 ca         1 B5P       0.020000
     26 S1           0.7360    -8.3640    -4.3980 sy         1 B5P       1.105700
     27 O4           0.2630    -8.4250    -5.7370 o          1 B5P      -0.581800
     28 O3           1.5430    -9.3740    -3.8080 o          1 B5P      -0.581800
     29 N4           1.5770    -6.9420    -4.2570 nf         1 B5P      -0.641300
     30 C16         -2.8960    -7.8720    -1.7400 ca         1 B5P      -0.075000
     31 N5          -0.2550    -5.8190    -3.2660 nu         1 B5P      -0.310600
     32 H11         -0.3610     0.1870    -1.0040 hc         1 B5P       0.005200
     33 H21         -0.3610     0.7760     0.6640 hc         1 B5P       0.005200
     34 H31         -0.3610    -0.9630     0.3400 hc         1 B5P       0.005200
     35 H2           1.8910     0.8840    -0.5110 hc         1 B5P       0.028700
     36 H13          1.7030     0.8990     1.9450 hc         1 B5P       0.005200
     37 H23          1.6550    -0.8690     1.9620 hc         1 B5P       0.005200
     38 H33          3.1230    -0.0300     1.4430 hc         1 B5P       0.005200
     39 H14          3.1190    -1.2950    -0.6440 hc         1 B5P       0.027700
     40 H24          1.6070    -2.1310    -0.2640 hc         1 B5P       0.027700
     41 H15          2.0680    -0.3060    -2.6510 h1         1 B5P       0.055200
     42 H25          0.5560    -1.1410    -2.2720 h1         1 B5P       0.055200
     43 H12          4.3100    -6.0770    -4.3310 ho         1 B5P       0.425000
     44 H9           5.7960    -3.8190    -5.1040 h4         1 B5P       0.169000
     45 H10          6.2790    -1.3450    -4.3780 h4         1 B5P       0.011100
     46 H15A        -2.4060    -5.7900    -1.7200 ha         1 B5P       0.122000
     47 H118        -1.5660   -11.3620    -0.0120 h1         1 B5P       0.065700
     48 H218        -2.4260   -11.2810     1.5310 h1         1 B5P       0.065700
     49 H318        -1.7500    -9.8110     0.8180 h1         1 B5P       0.065700
     50 HN6         -3.6460   -10.8770    -2.5650 hn         1 B5P       0.353800
     51 H19         -1.2230   -10.2570    -3.4640 ha         1 B5P       0.118000
     52 H16         -3.7730    -7.7460    -1.1180 ha         1 B5P       0.169000
     53 H22         -0.6690    -4.9130    -3.1730 hn         1 B5P       0.351800
     54 O1           0.2390    -3.4860    -2.4400 o          1 B5P      -0.698500
     55 N6          -3.3280   -10.2460    -1.8560 nu         1 B5P      -0.411500
@<TRIPOS>BOND
     1     1     2 1   
     2     1    32 1   
     3     1    33 1   
     4     1    34 1   
     5     2     3 1   
     6     2     4 1   
     7     2    35 1   
     8     3    36 1   
     9     3    37 1   
    10     3    38 1   
    11     4     5 1   
    12     4    39 1   
    13     4    40 1   
    14     5     8 1   
    15     5    41 1   
    16     5    42 1   
    17     6     7 1   
    18     6     8 1   
    19     6    54 2   
    20     7    10 2   
    21     7    16 1   
    22     8    15 1   
    23     9    10 1   
    24     9    13 1   
    25     9    15 1   
    26    10    11 1   
    27    11    43 1   
    28    12    14 1   
    29    12    15 2   
    30    13    14 2   
    31    13    44 1   
    32    14    45 1   
    33    16    29 2   
    34    16    31 1   
    35    17    18 ar  
    36    17    25 ar  
    37    17    26 1   
    38    18    19 ar  
    39    18    31 1   
    40    19    30 ar  
    41    19    46 1   
    42    20    21 2   
    43    21    22 2   
    44    21    23 1   
    45    21    55 1   
    46    23    47 1   
    47    23    48 1   
    48    23    49 1   
    49    24    25 ar  
    50    24    30 ar  
    51    24    55 1   
    52    25    51 1   
    53    26    27 2   
    54    26    28 2   
    55    26    29 1   
    56    30    52 1   
    57    31    53 1   
    58    50    55 1   
@<TRIPOS>SUBSTRUCTURE
     1 B5P         1 TEMP              0 ****  ****    0 ROOT
