@<TRIPOS>MOLECULE
B5Q
   54    58     1     0     0
SMALL
bcc


@<TRIPOS>ATOM
      1 C1           0.0000     0.0000     0.0000 ca         1 B5Q      -0.281600
      2 C2          -0.0710    -0.0010    -2.5210 c          1 B5Q       0.606600
      3 O4           1.1380     0.1000    -2.5840 o          1 B5Q      -0.559100
      4 C7           1.3980     0.0000     0.0000 ca         1 B5Q      -0.056000
      5 C9           0.0130     0.0000     2.4410 ca         1 B5Q      -0.180300
      6 C11          2.0760     0.0000     1.2060 cp         1 B5Q      -0.043000
      7 C12          1.3720     0.0000     2.4210 ca         1 B5Q      -0.052000
      8 C13         -2.6900    -0.0000     0.0590 ca         1 B5Q       0.694900
      9 C15          3.5590    -0.0010     1.2160 cp         1 B5Q      -0.009000
     10 C16         -0.7800    -0.5970    -4.9360 c3         1 B5Q       0.140800
     11 C19         -2.0420    -0.8220    -5.7290 ca         1 B5Q      -0.114300
     12 C20         -2.2440    -1.0160    -7.0850 ca         1 B5Q      -0.075000
     13 C21         -3.5230    -1.2030    -7.5750 ca         1 B5Q      -0.101000
     14 C22         -4.6000    -1.1990    -6.7100 ca         1 B5Q      -0.101000
     15 C24          4.2630     1.0130     0.5680 ca         1 B5Q      -0.089000
     16 C27          5.6340    -1.0100     1.8790 ca         1 B5Q      -0.098000
     17 C31          2.3700    -4.2260     2.2500 c3         1 B5Q       0.177100
     18 N3          -1.1570    -0.4510    -3.5270 n          1 B5Q      -0.267800
     19 C5          -0.7500    -0.0000    -1.2010 ca         1 B5Q       0.384800
     20 C6          -0.7050    -0.0050     1.2330 ca         1 B5Q       0.445600
     21 N8          -2.0710    -0.0010    -1.1170 nb         1 B5Q      -0.660000
     22 N10         -2.0410    -0.0060     1.2080 nb         1 B5Q      -0.682000
     23 N14         -4.0730    -0.0010     0.0800 nv         1 B5Q      -0.504500
     24 C17         -2.6150    -0.5850    -3.4610 c3         1 B5Q       0.140800
     25 C18         -3.1190    -0.8160    -4.8660 ca         1 B5Q      -0.114300
     26 C23         -4.3990    -1.0040    -5.3570 ca         1 B5Q      -0.075000
     27 C25          5.6430     1.0080     0.5810 ca         1 B5Q      -0.099000
     28 C26          6.3280    -0.0010     1.2350 ca         1 B5Q      -0.103000
     29 C28          4.2540    -1.0110     1.8790 ca         1 B5Q      -0.088300
     30 C29          3.5000    -2.1100     2.5820 c3         1 B5Q       0.181100
     31 N30          3.0060    -3.0770     1.5920 n7         1 B5Q      -0.578200
     32 H1           1.9450    -0.0000    -0.9350 ha         1 B5Q       0.165000
     33 H2          -0.5160     0.0000     3.3860 ha         1 B5Q       0.119000
     34 H3           1.9190     0.0000     3.3560 ha         1 B5Q       0.110000
     35 H4          -0.3080     0.3180    -5.2730 h1         1 B5Q       0.024950
     36 H5          -0.1350    -1.4600    -5.0440 h1         1 B5Q       0.024950
     37 H6          -1.3990    -1.0190    -7.7630 ha         1 B5Q       0.102000
     38 H7          -3.6800    -1.3550    -8.6360 ha         1 B5Q       0.103500
     39 H8          -5.6030    -1.3450    -7.0930 ha         1 B5Q       0.103500
     40 H9           3.7290     1.8030     0.0550 ha         1 B5Q       0.112000
     41 H10          6.1750    -1.7960     2.3920 ha         1 B5Q       0.103000
     42 H11          3.1160    -4.7850     2.8020 h1         1 B5Q      -0.001967
     43 H12          1.9190    -4.8660     1.5010 h1         1 B5Q      -0.001967
     44 H13          1.6050    -3.8730     2.9310 h1         1 B5Q      -0.001967
     45 H14         -4.5600    -0.0090     0.9540 hn         1 B5Q       0.275300
     46 H15         -4.5860     0.0310    -0.7790 hn         1 B5Q       0.275300
     47 H16         -2.8710    -1.3150    -2.7020 h1         1 B5Q       0.024950
     48 H17         -3.0530     0.3860    -3.2660 h1         1 B5Q       0.024950
     49 H18         -5.2440    -1.0010    -4.6800 ha         1 B5Q       0.102000
     50 H19          6.1920     1.7950     0.0780 ha         1 B5Q       0.103000
     51 H20          7.4110    -0.0020     1.2400 ha         1 B5Q       0.102000
     52 H21          4.1600    -2.6120     3.2790 h1         1 B5Q       0.016200
     53 H22          2.6620    -1.6860     3.1210 h1         1 B5Q       0.016200
     54 H23          3.7690    -3.3960     1.0280 hn         1 B5Q       0.253800
@<TRIPOS>BOND
     1     1     4 ar  
     2     1    19 ar  
     3     1    20 ar  
     4     2     3 2   
     5     2    18 1   
     6     2    19 1   
     7     4     6 ar  
     8     4    32 1   
     9     5     7 ar  
    10     5    20 ar  
    11     5    33 1   
    12     6     7 ar  
    13     6     9 1   
    14     7    34 1   
    15     8    21 ar  
    16     8    22 ar  
    17     8    23 1   
    18     9    15 ar  
    19     9    29 ar  
    20    10    11 1   
    21    10    18 1   
    22    10    35 1   
    23    10    36 1   
    24    11    12 ar  
    25    11    25 ar  
    26    12    13 ar  
    27    12    37 1   
    28    13    14 ar  
    29    13    38 1   
    30    14    26 ar  
    31    14    39 1   
    32    15    27 ar  
    33    15    40 1   
    34    16    28 ar  
    35    16    29 ar  
    36    16    41 1   
    37    17    31 1   
    38    17    42 1   
    39    17    43 1   
    40    17    44 1   
    41    18    24 1   
    42    19    21 ar  
    43    20    22 ar  
    44    23    45 1   
    45    23    46 1   
    46    24    25 1   
    47    24    47 1   
    48    24    48 1   
    49    25    26 ar  
    50    26    49 1   
    51    27    28 ar  
    52    27    50 1   
    53    28    51 1   
    54    29    30 1   
    55    30    31 1   
    56    30    52 1   
    57    30    53 1   
    58    31    54 1   
@<TRIPOS>SUBSTRUCTURE
     1 B5Q         1 TEMP              0 ****  ****    0 ROOT
