@<TRIPOS>MOLECULE
B5R
   41    42     1     0     0
SMALL
bcc


@<TRIPOS>ATOM
      1 C21          0.0000     0.0000     0.0000 ca         1 B5R      -0.172000
      2 C20          1.3830     0.0000     0.0000 ca         1 B5R       0.151900
      3 F20          2.0590     0.0000    -1.1690 f          1 B5R      -0.118900
      4 C19          2.0750     0.0000     1.2020 ca         1 B5R      -0.113600
      5 Cl19         3.8120    -0.0010     1.2020 cl         1 B5R       0.007600
      6 C18          1.3850     0.0000     2.4000 ca         1 B5R      -0.028000
      7 C17          0.0030     0.0010     2.4010 ca         1 B5R      -0.200000
      8 C16         -0.6930     0.0000     1.2020 ca         1 B5R       0.188100
      9 O14         -2.0530     0.0020     1.2040 os         1 B5R      -0.323900
     10 C13         -2.6990     0.0020     2.4770 c3         1 B5R       0.075400
     11 C11         -4.2160     0.0020     2.2780 c3         1 B5R       0.422800
     12 O11         -4.6010     1.1700     1.5490 oh         1 B5R      -0.582800
     13 C12         -4.6290    -1.2470     1.4970 c3         1 B5R      -0.164100
     14 C10         -4.8990     0.0030     3.6220 c          1 B5R       0.568100
     15 O10         -4.3250    -0.4410     4.5940 o          1 B5R      -0.627100
     16 N9          -6.1470     0.4970     3.7440 ns         1 B5R      -0.003100
     17 C6          -6.8210     0.3970     4.9620 ca         1 B5R      -0.088400
     18 C5          -7.7010     1.4010     5.3510 ca         1 B5R      -0.066000
     19 C1          -6.6150    -0.7080     5.7810 ca         1 B5R      -0.068000
     20 C2          -7.2780    -0.8090     6.9830 ca         1 B5R      -0.061000
     21 C3          -8.1600     0.2000     7.3810 ca         1 B5R       0.087000
     22 C8          -8.8510     0.0990     8.6300 cg         1 B5R       0.201800
     23 N8          -9.3900     0.0020     9.6250 n1         1 B5R      -0.335800
     24 C4          -8.3680     1.3070     6.5520 ca         1 B5R      -0.171300
     25 C7          -9.3220     2.3940     6.9740 c3         1 B5R       0.642200
     26 F2          -9.3630     3.3860     5.9880 f          1 B5R      -0.202633
     27 F1         -10.6010     1.8530     7.1430 f          1 B5R      -0.202633
     28 F3          -8.8880     2.9540     8.1800 f          1 B5R      -0.202633
     29 H21         -0.5420    -0.0050    -0.9380 ha         1 B5R       0.132000
     30 H18          1.9270     0.0000     3.3370 ha         1 B5R       0.119000
     31 H17         -0.5380     0.0010     3.3400 ha         1 B5R       0.139000
     32 H13         -2.2160    -0.7180     3.1280 h1         1 B5R      -0.046300
     33 H13A        -3.7410    -0.2660     2.3530 h1         1 B5R      -0.046300
     34 HO11        -4.3040     1.0950     0.6570 ho         1 B5R       0.415000
     35 H12         -4.0160    -1.3370     0.6090 hc         1 B5R       0.033367
     36 H12A        -5.6710    -1.1650     1.2100 hc         1 B5R       0.033367
     37 H12B        -4.4940    -2.1230     2.1190 hc         1 B5R       0.033367
     38 HN9         -6.6640     0.7580     2.9270 hn         1 B5R       0.184500
     39 H5          -7.9300     2.2130     4.6720 ha         1 B5R       0.132000
     40 H1          -6.0020    -1.5310     5.4350 ha         1 B5R       0.137000
     41 H2          -7.1170    -1.6700     7.6200 ha         1 B5R       0.123000
@<TRIPOS>BOND
     1     1     2 ar  
     2     1     8 ar  
     3     1    29 1   
     4     2     3 1   
     5     2     4 ar  
     6     4     5 1   
     7     4     6 ar  
     8     6     7 ar  
     9     6    30 1   
    10     7     8 ar  
    11     7    31 1   
    12     8     9 1   
    13     9    10 1   
    14    10    11 1   
    15    10    32 1   
    16    10    33 1   
    17    11    12 1   
    18    11    13 1   
    19    11    14 1   
    20    12    34 1   
    21    13    35 1   
    22    13    36 1   
    23    13    37 1   
    24    14    15 2   
    25    14    16 1   
    26    16    17 1   
    27    16    38 1   
    28    17    18 ar  
    29    17    19 ar  
    30    18    24 ar  
    31    18    39 1   
    32    19    20 ar  
    33    19    40 1   
    34    20    21 ar  
    35    20    41 1   
    36    21    22 1   
    37    21    24 ar  
    38    22    23 3   
    39    24    25 1   
    40    25    26 1   
    41    25    27 1   
    42    25    28 1   
@<TRIPOS>SUBSTRUCTURE
     1 B5R         1 TEMP              0 ****  ****    0 ROOT
