@<TRIPOS>MOLECULE
B5S
   56    58     1     0     0
SMALL
bcc


@<TRIPOS>ATOM
      1 C1           0.0000     0.0000     0.0000 c3         1 B5S       0.243700
      2 O2           1.4290     0.0000     0.0000 os         1 B5S      -0.307900
      3 C3           2.0460     0.0000     1.2110 ca         1 B5S       0.207100
      4 C4           1.2910     0.0010     2.3740 ca         1 B5S      -0.271000
      5 C5           1.9200     0.0000     3.6100 ca         1 B5S       0.208100
      6 O6           1.1790     0.0010     4.7490 oh         1 B5S      -0.498100
      7 C7           3.3040     0.0010     3.6840 ca         1 B5S      -0.232000
      8 C8           4.0610    -0.0010     2.5190 ca         1 B5S       0.059600
      9 N9           5.4570    -0.0020     2.5930 nu         1 B5S      -0.220000
     10 C10          6.2070     0.5720     1.5720 ca         1 B5S       0.099600
     11 C11          5.7090     1.6730     0.8780 ca         1 B5S      -0.188000
     12 C12          6.4380     2.2430    -0.1260 ca         1 B5S      -0.002000
     13 C13          7.6910     1.7240    -0.4640 ca         1 B5S      -0.234600
     14 C14          8.4770     2.3400    -1.5470 c          1 B5S       0.598700
     15 O15          9.5670     1.8870    -1.8400 o          1 B5S      -0.654100
     16 N16          7.9880     3.4050    -2.2130 ns         1 B5S      -0.027100
     17 C17          8.6840     3.9220    -3.3100 ca         1 B5S      -0.094400
     18 C18          9.4030     3.0740    -4.1420 ca         1 B5S      -0.118000
     19 C19         10.0890     3.5880    -5.2250 ca         1 B5S      -0.081000
     20 C20         10.0610     4.9470    -5.4810 ca         1 B5S      -0.109000
     21 C21          9.3470     5.7950    -4.6530 ca         1 B5S      -0.081000
     22 C22          8.6540     5.2860    -3.5730 ca         1 B5S      -0.118000
     23 C23          8.1970     0.6160     0.2320 ca         1 B5S       0.232100
     24 O24          9.4140     0.1050    -0.0910 os         1 B5S      -0.254900
     25 C25          9.8620    -1.0230     0.6610 c3         1 B5S       0.208400
     26 C26         11.2420    -1.4540     0.1590 c3         1 B5S      -0.043400
     27 C27         11.7240    -2.6640     0.9640 c3         1 B5S      -0.050200
     28 N28         13.0480    -3.0770     0.4810 nz         1 B5S       0.090400
     29 C32          7.4540     0.0480     1.2510 ca         1 B5S      -0.295000
     30 C33          3.4300    -0.0060     1.2830 ca         1 B5S      -0.218000
     31 HN28        12.9880    -3.3250    -0.4860 hn         1 B5S       0.224467
     32 HN2A        13.6940    -2.3210     0.5930 hn         1 B5S       0.224467
     33 HN2B        13.3630    -3.8670     1.0090 hn         1 B5S       0.224467
     34 H1          -0.3610    -0.8850     0.5090 h1         1 B5S       0.002033
     35 H1A         -0.3610     0.8840     0.5120 h1         1 B5S       0.002033
     36 H1B         -0.3610     0.0020    -1.0210 h1         1 B5S       0.002033
     37 H4           0.2090     0.0150     2.3170 ha         1 B5S       0.139000
     38 HO6          1.0250    -0.8880     5.0240 ho         1 B5S       0.409000
     39 H7           3.7960     0.0000     4.6490 ha         1 B5S       0.122000
     40 HN9          5.9150    -0.3920     3.3920 hn         1 B5S       0.286800
     41 H11          4.7380     2.0790     1.1370 ha         1 B5S       0.141000
     42 H12          6.0440     3.0990    -0.6610 ha         1 B5S       0.109000
     43 HN16         7.1420     3.8410    -1.9060 hn         1 B5S       0.173500
     44 H18          9.4250     2.0090    -3.9420 ha         1 B5S       0.119000
     45 H19         10.6490     2.9270    -5.8740 ha         1 B5S       0.104500
     46 H20         10.6020     5.3490    -6.3290 ha         1 B5S       0.106000
     47 H21          9.3250     6.8580    -4.8570 ha         1 B5S       0.104500
     48 H22          8.0950     5.9510    -2.9250 ha         1 B5S       0.119000
     49 H25          9.1620    -1.8410     0.5380 h1         1 B5S       0.008200
     50 H25A         9.9260    -0.7570     1.7090 h1         1 B5S       0.008200
     51 H26         11.9420    -0.6370     0.2820 hc         1 B5S       0.048700
     52 H26A        11.1780    -1.7200    -0.8890 hc         1 B5S       0.048700
     53 H27         11.0230    -3.4810     0.8410 hx         1 B5S       0.083700
     54 H27A        11.7880    -2.3980     2.0120 hx         1 B5S       0.083700
     55 H32          7.8390    -0.8080     1.7920 ha         1 B5S       0.118000
     56 H33          4.0200    -0.0070     0.3740 ha         1 B5S       0.135000
@<TRIPOS>BOND
     1     1     2 1   
     2     1    34 1   
     3     1    35 1   
     4     1    36 1   
     5     2     3 1   
     6     3     4 ar  
     7     3    30 ar  
     8     4     5 ar  
     9     4    37 1   
    10     5     6 1   
    11     5     7 ar  
    12     6    38 1   
    13     7     8 ar  
    14     7    39 1   
    15     8     9 1   
    16     8    30 ar  
    17     9    10 1   
    18     9    40 1   
    19    10    11 ar  
    20    10    29 ar  
    21    11    12 ar  
    22    11    41 1   
    23    12    13 ar  
    24    12    42 1   
    25    13    14 1   
    26    13    23 ar  
    27    14    15 2   
    28    14    16 1   
    29    16    17 1   
    30    16    43 1   
    31    17    18 ar  
    32    17    22 ar  
    33    18    19 ar  
    34    18    44 1   
    35    19    20 ar  
    36    19    45 1   
    37    20    21 ar  
    38    20    46 1   
    39    21    22 ar  
    40    21    47 1   
    41    22    48 1   
    42    23    24 1   
    43    23    29 ar  
    44    24    25 1   
    45    25    26 1   
    46    25    49 1   
    47    25    50 1   
    48    26    27 1   
    49    26    51 1   
    50    26    52 1   
    51    27    28 1   
    52    27    53 1   
    53    27    54 1   
    54    28    31 1   
    55    28    32 1   
    56    28    33 1   
    57    29    55 1   
    58    30    56 1   
@<TRIPOS>SUBSTRUCTURE
     1 B5S         1 TEMP              0 ****  ****    0 ROOT
