@<TRIPOS>MOLECULE
B5T
   40    43     1     0     0
SMALL
bcc


@<TRIPOS>ATOM
      1 CAG          0.0000     0.0000     0.0000 ca         1 B5T      -0.130000
      2 CAF          1.3800     0.0000     0.0000 ca         1 B5T       0.022500
      3 CAE          2.0740     0.0000     1.1970 ca         1 B5T      -0.248500
      4 SAB          3.8370     0.0000     1.1890 sy         1 B5T       0.931200
      5 OAC          4.2430    -0.5450     2.4370 o          1 B5T      -0.498800
      6 OAD          4.2330    -0.5440    -0.0630 o          1 B5T      -0.498800
      7 NAA          4.3260     1.5820     1.1860 nz         1 B5T      -0.132500
      8 CAJ          1.3900     0.0010     2.3990 ca         1 B5T       0.022500
      9 CAI          0.0100     0.0010     2.4100 ca         1 B5T      -0.130000
     10 CAH         -0.6940     0.0060     1.2090 cp         1 B5T       0.123000
     11 CAK         -2.1780     0.0060     1.2140 cp         1 B5T      -0.261300
     12 CAS         -2.8900     0.0060     0.0160 ca         1 B5T       0.031000
     13 CAR         -4.2810     0.0070     0.0830 ca         1 B5T      -0.216100
     14 CAL         -2.8810     0.0020     2.4230 ca         1 B5T       0.439200
     15 NAM         -4.1950     0.0030     2.4500 nb         1 B5T      -0.555000
     16 CAN         -4.9190     0.0080     1.3370 ca         1 B5T       0.247800
     17 NAO         -6.2740     0.0080     1.1030 na         1 B5T       0.291900
     18 CAP         -6.5250     0.0070    -0.2400 cc         1 B5T      -0.240100
     19 CAQ         -5.3550     0.0050    -0.9230 cd         1 B5T      -0.060400
     20 CAT         -5.1890     0.0050    -2.3960 ca         1 B5T      -0.139100
     21 CAY         -5.8830    -0.9150    -3.1890 ca         1 B5T      -0.061000
     22 CAX         -5.6950    -0.8740    -4.5590 ca         1 B5T      -0.210300
     23 CAW         -4.8330     0.0660    -5.0960 ca         1 B5T       0.407200
     24 NAV         -4.1920     0.9210    -4.3230 nb         1 B5T      -0.581000
     25 CAU         -4.3430     0.9240    -3.0150 ca         1 B5T       0.401200
     26 H1          -0.5430     0.0020    -0.9370 ha         1 B5T       0.139000
     27 H2           1.9200    -0.0040    -0.9390 ha         1 B5T       0.123000
     28 H3           3.9700     2.0400     0.3710 hn         1 B5T       0.312133
     29 H4           3.9780     2.0400     2.0050 hn         1 B5T       0.312133
     30 H5           1.9380    -0.0010     3.3330 ha         1 B5T       0.123000
     31 H6          -0.5240     0.0030     3.3530 ha         1 B5T       0.139000
     32 H7          -2.3920    -0.2560    -0.9090 ha         1 B5T       0.117000
     33 H8          -2.3310    -0.0030     3.3560 h4         1 B5T      -0.016900
     34 H9          -6.9770     0.0090     1.8160 hn         1 B5T       0.129700
     35 H10         -7.5100     0.0090    -0.6900 h4         1 B5T       0.158000
     36 H11         -6.5510    -1.6400    -2.7410 ha         1 B5T       0.114000
     37 H12         -6.2160    -1.5710    -5.2040 ha         1 B5T       0.120000
     38 H13         -4.6820     0.0990    -6.1680 h4         1 B5T      -0.014900
     39 H14         -3.7990     1.6420    -2.4130 h4         1 B5T      -0.020900
     40 HAA3         5.3260     1.6220     1.1750 hn         1 B5T       0.312133
@<TRIPOS>BOND
     1     1     2 ar  
     2     1    10 ar  
     3     1    26 1   
     4     2     3 ar  
     5     2    27 1   
     6     3     4 1   
     7     3     8 ar  
     8     4     5 2   
     9     4     6 2   
    10     4     7 1   
    11     7    28 1   
    12     7    29 1   
    13     7    40 1   
    14     8     9 ar  
    15     8    30 1   
    16     9    10 ar  
    17     9    31 1   
    18    10    11 1   
    19    11    12 ar  
    20    11    14 ar  
    21    12    13 ar  
    22    12    32 1   
    23    13    16 ar  
    24    13    19 1   
    25    14    15 ar  
    26    14    33 1   
    27    15    16 ar  
    28    16    17 1   
    29    17    18 1   
    30    17    34 1   
    31    18    19 2   
    32    18    35 1   
    33    19    20 1   
    34    20    21 ar  
    35    20    25 ar  
    36    21    22 ar  
    37    21    36 1   
    38    22    23 ar  
    39    22    37 1   
    40    23    24 ar  
    41    23    38 1   
    42    24    25 ar  
    43    25    39 1   
@<TRIPOS>SUBSTRUCTURE
     1 B5T         1 TEMP              0 ****  ****    0 ROOT
