@<TRIPOS>MOLECULE
molecule
   40    43     1     0     0
SMALL
bcc


@<TRIPOS>ATOM
      1 CAG          0.0000     0.0000     0.0000 ca         1 B5T      -0.143000
      2 CAF          1.3800     0.0000     0.0000 ca         1 B5T      -0.019000
      3 CAE          2.0740     0.0000     1.1970 ca         1 B5T      -0.358500
      4 SAB          3.8370     0.0000     1.1890 sy         1 B5T       1.221200
      5 OAC          4.2430    -0.5450     2.4370 o          1 B5T      -0.522800
      6 OAD          4.2330    -0.5440    -0.0630 o          1 B5T      -0.522800
      7 NAA          4.3260     1.5820     1.1860 nz         1 B5T      -0.805500
      8 CAJ          1.3900     0.0010     2.3990 ca         1 B5T      -0.019000
      9 CAI          0.0100     0.0010     2.4100 ca         1 B5T      -0.143000
     10 CAH         -0.6940     0.0060     1.2090 cp         1 B5T       0.106000
     11 CAK         -2.1780     0.0060     1.2140 cp         1 B5T      -0.258300
     12 CAS         -2.8900     0.0060     0.0160 ca         1 B5T      -0.006000
     13 CAR         -4.2810     0.0070     0.0830 ca         1 B5T      -0.213100
     14 CAL         -2.8810     0.0020     2.4230 ca         1 B5T       0.479200
     15 NAM         -4.1950     0.0030     2.4500 nb         1 B5T      -0.695000
     16 CAN         -4.9190     0.0080     1.3370 ca         1 B5T       0.492800
     17 NAO         -6.2740     0.0080     1.1030 na         1 B5T      -0.262100
     18 CAP         -6.5250     0.0070    -0.2400 cc         1 B5T      -0.061100
     19 CAQ         -5.3550     0.0050    -0.9230 cd         1 B5T      -0.087400
     20 CAT         -5.1890     0.0050    -2.3960 ca         1 B5T      -0.154100
     21 CAY         -5.8830    -0.9150    -3.1890 ca         1 B5T      -0.083000
     22 CAX         -5.6950    -0.8740    -4.5590 ca         1 B5T      -0.245300
     23 CAW         -4.8330     0.0660    -5.0960 ca         1 B5T       0.424200
     24 NAV         -4.1920     0.9210    -4.3230 nb         1 B5T      -0.689000
     25 CAU         -4.3430     0.9240    -3.0150 ca         1 B5T       0.423200
     26 H1          -0.5430     0.0020    -0.9370 ha         1 B5T       0.165000
     27 H2           1.9200    -0.0040    -0.9390 ha         1 B5T       0.154000
     28 H3           3.9700     2.0400     0.3710 hn         1 B5T       0.490467
     29 H4           3.9780     2.0400     2.0050 hn         1 B5T       0.490467
     30 H5           1.9380    -0.0010     3.3330 ha         1 B5T       0.154000
     31 H6          -0.5240     0.0030     3.3530 ha         1 B5T       0.165000
     32 H7          -2.3920    -0.2560    -0.9090 ha         1 B5T       0.149000
     33 H8          -2.3310    -0.0030     3.3560 h4         1 B5T       0.028100
     34 H9          -6.9770     0.0090     1.8160 hn         1 B5T       0.320700
     35 H10         -7.5100     0.0090    -0.6900 h4         1 B5T       0.190000
     36 H11         -6.5510    -1.6400    -2.7410 ha         1 B5T       0.143000
     37 H12         -6.2160    -1.5710    -5.2040 ha         1 B5T       0.148000
     38 H13         -4.6820     0.0990    -6.1680 h4         1 B5T       0.031100
     39 H14         -3.7990     1.6420    -2.4130 h4         1 B5T       0.022100
     40 HAA3         5.3260     1.6220     1.1750 hn         1 B5T       0.490467
@<TRIPOS>BOND
     1     6     4 2
     2    22    21 ar
     3    22    23 ar
     4     8     9 ar
     5     8     3 ar
     6     7     4 1
     7    21    20 ar
     8    23    24 ar
     9     9    10 ar
    10     4     3 1
    11     4     5 2
    12     3     2 ar
    13    20    19 1
    14    20    25 ar
    15    24    25 ar
    16    10    11 1
    17    10     1 ar
    18    12    11 ar
    19    12    13 ar
    20    11    14 ar
    21    19    13 1
    22    19    18 2
    23     2     1 ar
    24    13    16 ar
    25    18    17 1
    26    14    15 ar
    27    16    15 ar
    28    16    17 1
    29     1    26 1
    30     2    27 1
    31     7    28 1
    32     7    29 1
    33     8    30 1
    34     9    31 1
    35    12    32 1
    36    14    33 1
    37    17    34 1
    38    18    35 1
    39    21    36 1
    40    22    37 1
    41    23    38 1
    42    25    39 1
    43    40     7 1
@<TRIPOS>SUBSTRUCTURE
     1 B5T         1 TEMP              0 ****  ****    0 ROOT
