@<TRIPOS>MOLECULE
B5U
   70    73     1     0     0
SMALL
bcc


@<TRIPOS>ATOM
      1 C1           0.0000     0.0000     0.0000 c3         1 B5U       0.053200
      2 C2           1.5070     0.0000     0.0000 ca         1 B5U      -0.050300
      3 C3           2.1970     0.0000     1.2000 ca         1 B5U      -0.085000
      4 C4           3.5770    -0.0000     1.2050 ca         1 B5U      -0.083000
      5 C5           4.2760    -0.0000    -0.0020 cp         1 B5U      -0.185500
      6 C6           3.5760    -0.0010    -1.2060 ca         1 B5U      -0.066000
      7 C7           2.1960    -0.0060    -1.2000 ca         1 B5U      -0.088300
      8 C8           1.4370    -0.0130    -2.5020 c3         1 B5U       0.062200
      9 C9           5.7590    -0.0000    -0.0020 cp         1 B5U       0.307500
     10 C10          6.4580    -0.1050     1.2060 ca         1 B5U       0.420900
     11 N11          7.7760    -0.1060     1.2100 nb         1 B5U      -0.591000
     12 C12          8.4470    -0.0070     0.0680 ca         1 B5U       0.445900
     13 C13          7.7480     0.0990    -1.1470 ca         1 B5U       0.023500
     14 N14          6.4200     0.0930    -1.1470 nb         1 B5U      -0.530000
     15 C15          8.4900     0.2090    -2.4200 c          1 B5U       0.257600
     16 O16          9.6980     0.0740    -2.4340 o          1 B5U      -0.524100
     17 N17          7.8260     0.4580    -3.5660 nz         1 B5U       0.226600
     18 N18          9.8290    -0.0070     0.0740 nu         1 B5U      -0.172300
     19 C19         10.5240     0.1180     1.2830 ca         1 B5U      -0.138400
     20 C20         11.8200     0.6190     1.2920 ca         1 B5U      -0.066000
     21 C21         12.5040     0.7430     2.4850 ca         1 B5U      -0.159500
     22 C22         11.8980     0.3660     3.6740 ca         1 B5U       0.185100
     23 C23         10.6040    -0.1340     3.6670 ca         1 B5U      -0.159500
     24 C24          9.9160    -0.2530     2.4750 ca         1 B5U      -0.066000
     25 O25         12.5720     0.4880     4.8490 os         1 B5U      -0.293900
     26 C26         11.8880     0.0820     6.0360 c3         1 B5U       0.202400
     27 C27         12.7990     0.2910     7.2460 c3         1 B5U      -0.045400
     28 C28         12.0650    -0.1440     8.5170 c3         1 B5U       0.161800
     29 N29         12.9400     0.0560     9.6800 n3         1 B5U      -0.542600
     30 C30         12.3680    -0.5650    10.8830 c3         1 B5U       0.149300
     31 C31         13.3440    -0.4030    12.0500 c3         1 B5U       0.155800
     32 N32         13.6050     1.0260    12.2730 n3         1 B5U      -0.549600
     33 C33         14.1770     1.6470    11.0700 c3         1 B5U       0.155800
     34 C34         13.2010     1.4850     9.9030 c3         1 B5U       0.149300
     35 C35         14.4800     1.2260    13.4360 c3         1 B5U       0.189100
     36 H11C        -0.3610     0.1100     1.0150 hc         1 B5U       0.018033
     37 H12C        -0.3610     0.8250    -0.6030 hc         1 B5U       0.018033
     38 H13C        -0.3610    -0.9340    -0.4130 hc         1 B5U       0.018033
     39 H3           1.6530     0.0000     2.1360 ha         1 B5U       0.120000
     40 H4           4.1160    -0.0000     2.1440 ha         1 B5U       0.107000
     41 H6           4.1140    -0.0030    -2.1460 ha         1 B5U       0.100000
     42 H81C         2.1330    -0.1160    -3.3250 hc         1 B5U       0.013033
     43 H82C         0.8910     0.9170    -2.6060 hc         1 B5U       0.013033
     44 H83C         0.7420    -0.8430    -2.5100 hc         1 B5U       0.013033
     45 H10          5.9140    -0.1860     2.1390 h4         1 B5U       0.014100
     46 H18         10.3330    -0.1380    -0.7810 hn         1 B5U       0.329800
     47 H171         7.2460     1.2650    -3.4480 hn         1 B5U       0.242133
     48 H172         7.2550    -0.3310    -3.8000 hn         1 B5U       0.242133
     49 H20         12.2930     0.9130     0.3630 ha         1 B5U       0.136000
     50 H24          8.9060    -0.6440     2.4690 ha         1 B5U       0.136000
     51 H21         13.5150     1.1340     2.4920 ha         1 B5U       0.131000
     52 H23         10.1310    -0.4260     4.5960 ha         1 B5U       0.131000
     53 H261        11.6230    -0.9650     5.9590 h1         1 B5U       0.003200
     54 H262        10.9880     0.6750     6.1540 h1         1 B5U       0.003200
     55 H271        13.0640     1.3390     7.3230 hc         1 B5U       0.037200
     56 H272        13.6980    -0.3010     7.1280 hc         1 B5U       0.037200
     57 H281        11.8010    -1.1920     8.4400 h1         1 B5U       0.007700
     58 H282        11.1660     0.4480     8.6350 h1         1 B5U       0.007700
     59 H301        11.4310    -0.0810    11.1270 h1         1 B5U       0.015200
     60 H302        12.1990    -1.6190    10.6980 h1         1 B5U       0.015200
     61 H341        12.2710     1.9890    10.1380 h1         1 B5U       0.015200
     62 H342        13.6350     1.9160     9.0080 h1         1 B5U       0.015200
     63 H311        12.9100    -0.8340    12.9450 h1         1 B5U       0.015950
     64 H312        14.2740    -0.9070    11.8150 h1         1 B5U       0.015950
     65 H331        15.1140     1.1630    10.8260 h1         1 B5U       0.015950
     66 H332        14.3460     2.7010    11.2550 h1         1 B5U       0.015950
     67 H351        15.4610     0.8190    13.2250 h1         1 B5U       0.002033
     68 H352        14.0570     0.7220    14.2970 h1         1 B5U       0.002033
     69 H353        14.5660     2.2860    13.6450 h1         1 B5U       0.002033
     70 H173         8.4830     0.6160    -4.3050 hn         1 B5U       0.242133
@<TRIPOS>BOND
     1     1     2 1   
     2     1    36 1   
     3     1    37 1   
     4     1    38 1   
     5     2     3 ar  
     6     2     7 ar  
     7     3     4 ar  
     8     3    39 1   
     9     4     5 ar  
    10     4    40 1   
    11     5     6 ar  
    12     5     9 1   
    13     6     7 ar  
    14     6    41 1   
    15     7     8 1   
    16     8    42 1   
    17     8    43 1   
    18     8    44 1   
    19     9    10 ar  
    20     9    14 ar  
    21    10    11 ar  
    22    10    45 1   
    23    11    12 ar  
    24    12    13 ar  
    25    12    18 1   
    26    13    14 ar  
    27    13    15 1   
    28    15    16 2   
    29    15    17 1   
    30    17    47 1   
    31    17    48 1   
    32    17    70 1   
    33    18    19 1   
    34    18    46 1   
    35    19    20 ar  
    36    19    24 ar  
    37    20    21 ar  
    38    20    49 1   
    39    21    22 ar  
    40    21    51 1   
    41    22    23 ar  
    42    22    25 1   
    43    23    24 ar  
    44    23    52 1   
    45    24    50 1   
    46    25    26 1   
    47    26    27 1   
    48    26    53 1   
    49    26    54 1   
    50    27    28 1   
    51    27    55 1   
    52    27    56 1   
    53    28    29 1   
    54    28    57 1   
    55    28    58 1   
    56    29    30 1   
    57    29    34 1   
    58    30    31 1   
    59    30    59 1   
    60    30    60 1   
    61    31    32 1   
    62    31    63 1   
    63    31    64 1   
    64    32    33 1   
    65    32    35 1   
    66    33    34 1   
    67    33    65 1   
    68    33    66 1   
    69    34    61 1   
    70    34    62 1   
    71    35    67 1   
    72    35    68 1   
    73    35    69 1   
@<TRIPOS>SUBSTRUCTURE
     1 B5U         1 TEMP              0 ****  ****    0 ROOT
