@<TRIPOS>MOLECULE
molecule
   49    52     1     0     0
SMALL
bcc


@<TRIPOS>ATOM
      1 C13          0.0000     0.0000     0.0000 c3         1 B5V       0.124100
      2 C20         -7.1720     0.1850    -1.8540 ca         1 B5V      -0.043000
      3 C21         -8.5160    -0.0730    -1.6850 ca         1 B5V      -0.195000
      4 C22         -9.4180     0.2330    -2.6920 ca         1 B5V      -0.082000
      5 C24         -7.6340     1.0700    -4.0580 ca         1 B5V       0.185100
      6 C02          0.2820    -0.1850     6.8550 ca         1 B5V       0.761200
      7 C03         -0.0370    -0.2470     5.4890 ca         1 B5V      -0.156200
      8 C05         -0.8250    -0.6000     3.5000 cc         1 B5V       0.454700
      9 C07          0.7300     0.5170     4.5920 ca         1 B5V       0.443800
     10 C09          1.9860     1.2890     6.3550 ca         1 B5V       0.687900
     11 C11          0.6810     0.8460     2.0830 c3         1 B5V       0.255800
     12 C14         -0.5320     0.5980    -1.3040 c3         1 B5V       0.238400
     13 C18         -5.2830     1.0450    -3.2270 c          1 B5V       0.689700
     14 C19         -6.7170     0.7620    -3.0420 ca         1 B5V      -0.142600
     15 C23         -8.9810     0.7980    -3.8730 ca         1 B5V      -0.249000
     16 C29          1.5490     0.0000     0.0000 c3         1 B5V       0.087100
     17 C31          1.8450     0.0000     1.5240 c3         1 B5V       0.078100
     18 N04         -0.9690    -0.9030     4.7570 nd         1 B5V      -0.599100
     19 N06          0.2100     0.2740     3.3470 na         1 B5V      -0.263000
     20 N08          1.7230     1.2630     5.0650 nb         1 B5V      -0.737000
     21 N10          1.2960     0.5870     7.2340 nb         1 B5V      -0.783000
     22 O12         -0.3750     0.8230     1.1160 os         1 B5V      -0.367600
     23 O15         -1.9600     0.5430    -1.3060 os         1 B5V      -0.603200
     24 O26         -4.8910     1.5470    -4.2630 o          1 B5V      -0.472000
     25 O30          2.0640     1.1780    -0.6250 oh         1 B5V      -0.559800
     26 O32          3.1020     0.6210     1.7990 oh         1 B5V      -0.569800
     27 P16         -2.8560     1.0880    -2.5270 p5         1 B5V       1.329800
     28 H1          -0.3730    -1.0080     0.1370 h1         1 B5V       0.054700
     29 H3          -8.8680    -0.5190    -0.7630 ha         1 B5V       0.123000
     30 H4         -10.4720     0.0250    -2.5520 ha         1 B5V       0.117000
     31 H5          -1.4390    -0.9840     2.6940 h5         1 B5V       0.096800
     32 H6           2.8050     1.9060     6.7070 h5         1 B5V       0.056100
     33 H7           1.0120     1.8660     2.2380 h2         1 B5V       0.126700
     34 H8          -0.1470     0.0320    -2.1440 h1         1 B5V       0.055200
     35 H9          -0.2100     1.6290    -1.3860 h1         1 B5V       0.055200
     36 H10         -9.6930     1.0340    -4.6550 ha         1 B5V       0.122000
     37 H11          1.9350    -0.8980    -0.4680 h1         1 B5V       0.045700
     38 H12          1.8100    -1.0080     1.9200 h1         1 B5V       0.050700
     39 H17          2.7940     0.9480    -1.1760 ho         1 B5V       0.402000
     40 H18          3.7750    -0.0380     1.8400 ho         1 B5V       0.398000
     41 O25         -7.2040     1.6310    -5.2160 oh         1 B5V      -0.446100
     42 N01         -0.4380    -0.9150     7.7850 nv         1 B5V      -1.073500
     43 O17         -4.4050     0.7480    -2.2490 os         1 B5V      -0.553500
     44 O27         -2.4270     0.4350    -3.7840 o          1 B5V      -0.791500
     45 O28         -2.6730     2.6810    -2.6600 o          1 B5V      -0.791500
     46 H2          -6.4700    -0.0560    -1.0640 ha         1 B5V       0.159000
     47 H13         -0.1430    -1.8380     8.0330 hn         1 B5V       0.438300
     48 H15         -7.8670     1.5320    -5.8780 ho         1 B5V       0.405000
     49 H14         -1.2340    -0.5070     8.2330 hn         1 B5V       0.438300
@<TRIPOS>BOND
     1    25    16 1
     2    16    17 1
     3    16     1 1
     4    17    26 1
     5    17    11 1
     6     1    12 1
     7     1    22 1
     8    21    10 ar
     9    21     6 ar
    10    10    20 ar
    11    42     6 1
    12     6     7 ar
    13    20     9 ar
    14    15     4 ar
    15    15     5 ar
    16     7     9 ar
    17     7    18 1
    18     4     3 ar
    19     9    19 1
    20    18     8 2
    21    19    11 1
    22    19     8 1
    23    11    22 1
    24    12    23 1
    25    41     5 1
    26     5    14 ar
    27     3     2 ar
    28    44    27 1
    29    14     2 ar
    30    14    13 1
    31    23    27 1
    32    43    13 1
    33    43    27 1
    34    13    24 2
    35    27    45 1
    36     1    28 1
    37     2    46 1
    38     3    29 1
    39     4    30 1
    40     8    31 1
    41    10    32 1
    42    11    33 1
    43    12    34 1
    44    12    35 1
    45    15    36 1
    46    16    37 1
    47    17    38 1
    48    42    47 1
    49    42    49 1
    50    41    48 1
    51    25    39 1
    52    26    40 1
@<TRIPOS>SUBSTRUCTURE
     1 B5V         1 TEMP              0 ****  ****    0 ROOT
