@<TRIPOS>MOLECULE
molecule
   47    49     1     0     0
SMALL
bcc


@<TRIPOS>ATOM
      1 C2           0.0000     0.0000     0.0000 ca         1 B5W      -0.194300
      2 C3          -0.7510    -0.0000    -1.3070 c3         1 B5W       0.162100
      3 C4          -1.7200     1.3840    -3.0090 c3         1 B5W       0.088800
      4 C5          -1.9680     2.8270    -3.4550 c3         1 B5W      -0.108400
      5 C6          -2.7300     2.8260    -4.7820 c3         1 B5W      -0.020100
      6 C9          -2.2720     6.1960    -6.4230 ca         1 B5W      -0.117000
      7 C10         -3.4280     6.8490    -6.0370 ca         1 B5W      -0.109000
      8 C11         -4.3560     6.2020    -5.2440 ca         1 B5W      -0.117000
      9 C12         -4.1290     4.9010    -4.8360 ca         1 B5W      -0.120500
     10 C13          1.3840     0.0000     0.0000 ca         1 B5W      -0.102000
     11 C14          2.0770     0.0000     1.1940 ca         1 B5W      -0.103000
     12 C21          1.7990     0.9240     4.6790 ca         1 B5W      -0.098000
     13 Cl          -0.8890     0.0080     3.8940 cl         1 B5W      -0.050400
     14 C           -0.0130     0.0010     2.3950 ca         1 B5W       0.031400
     15 C15          1.3810     0.0010     2.4000 cp         1 B5W       0.039000
     16 C16          2.1200     0.0010     3.6870 cp         1 B5W      -0.090000
     17 C20          2.4940     0.9240     5.8710 ca         1 B5W      -0.124000
     18 C19          3.5050     0.0040     6.0840 ca         1 B5W      -0.097000
     19 C18          3.8260    -0.9190     5.1040 ca         1 B5W      -0.124000
     20 C17          3.1410    -0.9230     3.9060 ca         1 B5W      -0.098000
     21 C1          -0.6970     0.0060     1.1940 ca         1 B5W      -0.098000
     22 N           -0.9890     1.3840    -1.7350 ny         1 B5W      -0.733000
     23 C7          -2.9740     4.2470    -5.2210 ca         1 B5W      -0.114300
     24 C8          -2.0480     4.8930    -6.0190 ca         1 B5W      -0.120500
     25 H1          -0.1660    -0.5160    -2.0590 hx         1 B5W       0.107700
     26 H2          -1.7000    -0.5060    -1.1780 hx         1 B5W       0.107700
     27 H3          -2.6680     0.8770    -2.8810 hx         1 B5W       0.104700
     28 H4          -1.1340     0.8700    -3.7620 hx         1 B5W       0.104700
     29 H5          -1.0200     3.3340    -3.5830 hc         1 B5W       0.066700
     30 H6          -2.5540     3.3410    -2.7030 hc         1 B5W       0.066700
     31 H7          -3.6790     2.3190    -4.6540 hc         1 B5W       0.059700
     32 H8          -2.1440     2.3110    -5.5340 hc         1 B5W       0.059700
     33 H10         -3.6050     7.8700    -6.3550 ha         1 B5W       0.145000
     34 H11         -5.2620     6.7150    -4.9420 ha         1 B5W       0.143000
     35 H12         -4.8570     4.3940    -4.2140 ha         1 B5W       0.127500
     36 H13          1.9240    -0.0000    -0.9390 ha         1 B5W       0.137000
     37 H14          3.1600    -0.0000     1.1920 ha         1 B5W       0.167000
     38 H15          1.0070     1.6450     4.5140 ha         1 B5W       0.135000
     39 H16          2.2460     1.6430     6.6430 ha         1 B5W       0.144500
     40 H17          4.0470     0.0050     7.0220 ha         1 B5W       0.144000
     41 H18          4.6190    -1.6360     5.2760 ha         1 B5W       0.144500
     42 H19          3.3940    -1.6450     3.1390 ha         1 B5W       0.135000
     43 H20         -1.7800     0.0020     1.1880 ha         1 B5W       0.146000
     44 H21         -0.1120     1.8520    -1.8530 hn         1 B5W       0.450300
     45 H22         -1.5290     1.8600    -1.0400 hn         1 B5W       0.450300
     46 H23         -1.1430     4.3800    -6.3210 ha         1 B5W       0.127500
     47 H9          -1.5450     6.7020    -7.0460 ha         1 B5W       0.143000
@<TRIPOS>BOND
     1    11    10 ar
     2    11    15 ar
     3    19    18 ar
     4    19    20 ar
     5    10     1 ar
     6    18    17 ar
     7    20    16 ar
     8    17    12 ar
     9    16    12 ar
    10    16    15 1
    11    15    14 ar
    12     1     2 1
    13     1    21 ar
    14     2    22 1
    15    14    21 ar
    16    14    13 1
    17     3    22 1
    18     3     4 1
    19     5     4 1
    20     5    23 1
    21    23    24 ar
    22    23     9 ar
    23    24     6 ar
    24     9     8 ar
    25     6     7 ar
    26     8     7 ar
    27     2    25 1
    28     2    26 1
    29     3    27 1
    30     3    28 1
    31     4    29 1
    32     4    30 1
    33     5    31 1
    34     5    32 1
    35     6    47 1
    36     7    33 1
    37     8    34 1
    38     9    35 1
    39    10    36 1
    40    11    37 1
    41    12    38 1
    42    17    39 1
    43    18    40 1
    44    19    41 1
    45    20    42 1
    46    21    43 1
    47    22    44 1
    48    22    45 1
    49    24    46 1
@<TRIPOS>SUBSTRUCTURE
     1 B5W         1 TEMP              0 ****  ****    0 ROOT
