@<TRIPOS>MOLECULE
B5W
   47    49     1     0     0
SMALL
bcc


@<TRIPOS>ATOM
      1 C2           0.0000     0.0000     0.0000 ca         1 B5W      -0.211300
      2 C3          -0.7510    -0.0000    -1.3070 c3         1 B5W       0.052100
      3 C4          -1.7200     1.3840    -3.0090 c3         1 B5W      -0.040200
      4 C5          -1.9680     2.8270    -3.4550 c3         1 B5W      -0.037400
      5 C6          -2.7300     2.8260    -4.7820 c3         1 B5W       0.052900
      6 C9          -2.2720     6.1960    -6.4230 ca         1 B5W      -0.087000
      7 C10         -3.4280     6.8490    -6.0370 ca         1 B5W      -0.079000
      8 C11         -4.3560     6.2020    -5.2440 ca         1 B5W      -0.087000
      9 C12         -4.1290     4.9010    -4.8360 ca         1 B5W      -0.093000
     10 C13          1.3840     0.0000     0.0000 ca         1 B5W      -0.070000
     11 C14          2.0770     0.0000     1.1940 ca         1 B5W      -0.073000
     12 C21          1.7990     0.9240     4.6790 ca         1 B5W      -0.078000
     13 Cl          -0.8890     0.0080     3.8940 cl         1 B5W       0.048600
     14 C           -0.0130     0.0010     2.3950 ca         1 B5W      -0.044600
     15 C15          1.3810     0.0010     2.4000 cp         1 B5W       0.050000
     16 C16          2.1200     0.0010     3.6870 cp         1 B5W      -0.093000
     17 C20          2.4940     0.9240     5.8710 ca         1 B5W      -0.092000
     18 C19          3.5050     0.0040     6.0840 ca         1 B5W      -0.069000
     19 C18          3.8260    -0.9190     5.1040 ca         1 B5W      -0.092000
     20 C17          3.1410    -0.9230     3.9060 ca         1 B5W      -0.078000
     21 C1          -0.6970     0.0060     1.1940 ca         1 B5W      -0.070000
     22 N           -0.9890     1.3840    -1.7350 ny         1 B5W       0.026000
     23 C7          -2.9740     4.2470    -5.2210 ca         1 B5W      -0.129300
     24 C8          -2.0480     4.8930    -6.0190 ca         1 B5W      -0.093000
     25 H1          -0.1660    -0.5160    -2.0590 hx         1 B5W       0.078700
     26 H2          -1.7000    -0.5060    -1.1780 hx         1 B5W       0.078700
     27 H3          -2.6680     0.8770    -2.8810 hx         1 B5W       0.079700
     28 H4          -1.1340     0.8700    -3.7620 hx         1 B5W       0.079700
     29 H5          -1.0200     3.3340    -3.5830 hc         1 B5W       0.034700
     30 H6          -2.5540     3.3410    -2.7030 hc         1 B5W       0.034700
     31 H7          -3.6790     2.3190    -4.6540 hc         1 B5W       0.026700
     32 H8          -2.1440     2.3110    -5.5340 hc         1 B5W       0.026700
     33 H10         -3.6050     7.8700    -6.3550 ha         1 B5W       0.114000
     34 H11         -5.2620     6.7150    -4.9420 ha         1 B5W       0.113000
     35 H12         -4.8570     4.3940    -4.2140 ha         1 B5W       0.102500
     36 H13          1.9240    -0.0000    -0.9390 ha         1 B5W       0.108000
     37 H14          3.1600    -0.0000     1.1920 ha         1 B5W       0.133000
     38 H15          1.0070     1.6450     4.5140 ha         1 B5W       0.108000
     39 H16          2.2460     1.6430     6.6430 ha         1 B5W       0.114000
     40 H17          4.0470     0.0050     7.0220 ha         1 B5W       0.113000
     41 H18          4.6190    -1.6360     5.2760 ha         1 B5W       0.114000
     42 H19          3.3940    -1.6450     3.1390 ha         1 B5W       0.108000
     43 H20         -1.7800     0.0020     1.1880 ha         1 B5W       0.117000
     44 H21         -0.1120     1.8520    -1.8530 hn         1 B5W       0.243800
     45 H22         -1.5290     1.8600    -1.0400 hn         1 B5W       0.243800
     46 H23         -1.1430     4.3800    -6.3210 ha         1 B5W       0.102500
     47 H9          -1.5450     6.7020    -7.0460 ha         1 B5W       0.113000
@<TRIPOS>BOND
     1     1     2 1   
     2     1    10 ar  
     3     1    21 ar  
     4     2    22 1   
     5     2    25 1   
     6     2    26 1   
     7     3     4 1   
     8     3    22 1   
     9     3    27 1   
    10     3    28 1   
    11     4     5 1   
    12     4    29 1   
    13     4    30 1   
    14     5    23 1   
    15     5    31 1   
    16     5    32 1   
    17     6     7 ar  
    18     6    24 ar  
    19     6    47 1   
    20     7     8 ar  
    21     7    33 1   
    22     8     9 ar  
    23     8    34 1   
    24     9    23 ar  
    25     9    35 1   
    26    10    11 ar  
    27    10    36 1   
    28    11    15 ar  
    29    11    37 1   
    30    12    16 ar  
    31    12    17 ar  
    32    12    38 1   
    33    13    14 1   
    34    14    15 ar  
    35    14    21 ar  
    36    15    16 1   
    37    16    20 ar  
    38    17    18 ar  
    39    17    39 1   
    40    18    19 ar  
    41    18    40 1   
    42    19    20 ar  
    43    19    41 1   
    44    20    42 1   
    45    21    43 1   
    46    22    44 1   
    47    22    45 1   
    48    23    24 ar  
    49    24    46 1   
@<TRIPOS>SUBSTRUCTURE
     1 B5W         1 TEMP              0 ****  ****    0 ROOT
