@<TRIPOS>MOLECULE
molecule
   52    55     1     0     0
SMALL
bcc


@<TRIPOS>ATOM
      1 C13          0.0000     0.0000     0.0000 c3         1 B5Y       0.124100
      2 C20         -7.1720     0.1840    -1.8570 ca         1 B5Y      -0.040000
      3 C21         -8.5140    -0.0740    -1.6890 ca         1 B5Y      -0.151300
      4 C22         -9.4160     0.2300    -2.6950 ca         1 B5Y      -0.078000
      5 C24         -7.6330     1.0690    -4.0610 ca         1 B5Y       0.183100
      6 C26         -9.0050    -0.6920    -0.4050 c3         1 B5Y      -0.037800
      7 C02          0.2820    -0.1870     6.8560 ca         1 B5Y       0.781200
      8 C03         -0.0390    -0.2480     5.4880 ca         1 B5Y      -0.211200
      9 C05         -0.8270    -0.6010     3.4990 cc         1 B5Y       0.440700
     10 C07          0.7280     0.5160     4.5930 ca         1 B5Y       0.472800
     11 C09          1.9860     1.2880     6.3550 ca         1 B5Y       0.726900
     12 C11          0.6800     0.8460     2.0830 c3         1 B5Y       0.256800
     13 C14         -0.5320     0.5980    -1.3050 c3         1 B5Y       0.239400
     14 C18         -5.2810     1.0450    -3.2290 c          1 B5Y       0.690700
     15 C19         -6.7160     0.7610    -3.0450 ca         1 B5Y      -0.141600
     16 C23         -8.9800     0.7970    -3.8770 ca         1 B5Y      -0.251000
     17 C30          1.5490     0.0000     0.0000 c3         1 B5Y       0.086100
     18 C32          1.8450     0.0000     1.5250 c3         1 B5Y       0.078100
     19 N04         -0.9710    -0.9050     4.7560 nd         1 B5Y      -0.608100
     20 N06          0.2090     0.2720     3.3460 na         1 B5Y      -0.258000
     21 N08          1.7220     1.2610     5.0660 nb         1 B5Y      -0.777000
     22 N10          1.2920     0.5880     7.2350 nb         1 B5Y      -0.847000
     23 O12         -0.3750     0.8230     1.1160 os         1 B5Y      -0.367600
     24 O15         -1.9590     0.5430    -1.3070 os         1 B5Y      -0.603200
     25 O27         -4.8900     1.5460    -4.2640 o          1 B5Y      -0.471000
     26 O31          2.0640     1.1780    -0.6240 oh         1 B5Y      -0.559800
     27 O33          3.1020     0.6200     1.7990 oh         1 B5Y      -0.568800
     28 P16         -2.8560     1.0870    -2.5290 p5         1 B5Y       1.328800
     29 H1          -0.3730    -1.0080     0.1370 h1         1 B5Y       0.053700
     30 H3         -10.4700     0.0210    -2.5550 ha         1 B5Y       0.118000
     31 H4          -8.9200     0.0290     0.3990 hc         1 B5Y       0.035700
     32 H5         -10.0410    -0.9870    -0.5180 hc         1 B5Y       0.035700
     33 H6          -8.4060    -1.5640    -0.1710 hc         1 B5Y       0.035700
     34 H7          -1.4400    -0.9850     2.6930 h5         1 B5Y       0.094800
     35 H8           2.8020     1.9070     6.7070 h5         1 B5Y       0.054100
     36 H9           1.0110     1.8650     2.2380 h2         1 B5Y       0.126700
     37 H10         -0.2100     1.6290    -1.3870 h1         1 B5Y       0.054700
     38 H11         -0.1470     0.0310    -2.1440 h1         1 B5Y       0.054700
     39 H12         -9.6910     1.0330    -4.6590 ha         1 B5Y       0.122000
     40 H13          1.9350    -0.8980    -0.4680 h1         1 B5Y       0.044700
     41 H14          1.8100    -1.0080     1.9210 h1         1 B5Y       0.050700
     42 H19          2.7950     0.9490    -1.1740 ho         1 B5Y       0.401000
     43 H20          3.7750    -0.0380     1.8400 ho         1 B5Y       0.398000
     44 O25         -7.2020     1.6300    -5.2180 oh         1 B5Y      -0.443100
     45 N01         -0.4360    -0.9200     7.7840 nv         1 B5Y      -0.992500
     46 O17         -4.4050     0.7470    -2.2500 os         1 B5Y      -0.552500
     47 O28         -2.4250     0.4360    -3.7850 o          1 B5Y      -0.791000
     48 O29         -2.6720     2.6820    -2.6600 o          1 B5Y      -0.791000
     49 H2          -6.4710    -0.0570    -1.0670 ha         1 B5Y       0.160000
     50 H15         -0.1970    -0.8700     8.7550 hn         1 B5Y       0.445300
     51 H17         -7.9450     1.8590    -5.7520 ho         1 B5Y       0.404000
     52 H16         -1.1940    -1.5010     7.4850 hn         1 B5Y       0.445300
@<TRIPOS>BOND
     1    26    17 1
     2    17    18 1
     3    17     1 1
     4    18    27 1
     5    18    12 1
     6     1    13 1
     7     1    23 1
     8    45     7 1
     9     7    22 ar
    10     7     8 ar
    11    22    11 ar
    12     8    19 1
    13     8    10 ar
    14    11    21 ar
    15    19     9 2
    16    13    24 1
    17    16     4 ar
    18    16     5 ar
    19     4     3 ar
    20    10    21 ar
    21    10    20 1
    22     9    20 1
    23    20    12 1
    24    12    23 1
    25    44     5 1
    26     5    15 ar
    27    47    28 1
    28     3     6 1
    29     3     2 ar
    30    15     2 ar
    31    15    14 1
    32    24    28 1
    33    46    28 1
    34    46    14 1
    35    28    48 1
    36    14    25 2
    37     1    29 1
    38     2    49 1
    39     4    30 1
    40     6    31 1
    41     6    32 1
    42     6    33 1
    43     9    34 1
    44    11    35 1
    45    12    36 1
    46    13    37 1
    47    13    38 1
    48    16    39 1
    49    17    40 1
    50    18    41 1
    51    45    50 1
    52    45    52 1
    53    44    51 1
    54    26    42 1
    55    27    43 1
@<TRIPOS>SUBSTRUCTURE
     1 B5Y         1 TEMP              0 ****  ****    0 ROOT
