@<TRIPOS>MOLECULE
B5Z
   59    63     1     0     0
SMALL
bcc


@<TRIPOS>ATOM
      1 CAL          0.0000     0.0000     0.0000 cx         1 B5Z      -0.045400
      2 CAM          1.5300     0.0000     0.0000 cx         1 B5Z      -0.045400
      3 CBF          0.7650     0.0000     1.3250 cx         1 B5Z      -0.220700
      4 CAY          0.7660    -1.2750     2.1280 c          1 B5Z       0.586100
      5 OAB          0.1740    -2.2500     1.7180 o          1 B5Z      -0.594100
      6 NAU          1.4230    -1.3310     3.3040 ns         1 B5Z       0.017600
      7 CBC          1.4250    -2.5020     4.0420 cc         1 B5Z       0.306800
      8 NAQ          2.0220    -2.6580     5.1720 nd         1 B5Z      -0.514100
      9 SAW          0.6050    -3.9840     3.5710 ss         1 B5Z      -0.210500
     10 CBE          1.1700    -4.7800     5.0400 ca         1 B5Z       0.412600
     11 NAR          0.9780    -6.0150     5.4890 nb         1 B5Z      -0.490000
     12 CBD          1.9300    -3.8590     5.7720 ca         1 B5Z      -0.021900
     13 CAG          2.4850    -4.2840     7.0000 ca         1 B5Z      -0.028000
     14 CAF          2.2620    -5.5630     7.4210 ca         1 B5Z      -0.212300
     15 CBB          1.4960    -6.4260     6.6350 cp         1 B5Z       0.437800
     16 CBA          1.2540    -7.8150     7.0940 cp         1 B5Z      -0.136500
     17 CAH          0.4840    -8.6820     6.3210 ca         1 B5Z      -0.068000
     18 CAE          1.7990    -8.2600     8.2970 ca         1 B5Z      -0.115000
     19 CAC          1.5730    -9.5540     8.7220 ca         1 B5Z      -0.085000
     20 CAD          0.8060   -10.4120     7.9580 ca         1 B5Z      -0.136000
     21 CAZ          0.2610    -9.9790     6.7550 ca         1 B5Z      -0.073400
     22 NAT         -0.5130   -10.8530     5.9820 ns         1 B5Z      -0.056100
     23 CAX         -0.4860   -10.7650     4.6370 c          1 B5Z       0.564100
     24 OAA          0.2790    -9.9940     4.0920 o          1 B5Z      -0.679100
     25 NAS         -1.3100   -11.5320     3.8960 ns         1 B5Z      -0.218900
     26 CAI         -1.2820   -11.4370     2.4350 c3         1 B5Z       0.055000
     27 CAN         -2.3060   -12.4070     1.8400 c3         1 B5Z       0.140800
     28 NBG         -2.2790   -12.3100     0.3750 n3         1 B5Z      -0.527600
     29 CAO         -3.4030   -13.0450    -0.2220 c3         1 B5Z       0.106300
     30 CAJ         -3.3710   -12.8700    -1.7420 c3         1 B5Z       0.215400
     31 OAV         -2.1070   -13.3160    -2.2420 os         1 B5Z      -0.412600
     32 CAK         -0.9890   -12.6200    -1.6820 c3         1 B5Z       0.215400
     33 CAP         -0.9980   -12.7940    -0.1600 c3         1 B5Z       0.106300
     34 H1          -0.4670    -0.9390    -0.2700 hc         1 B5Z       0.053950
     35 H2          -0.4670     0.9390    -0.2700 hc         1 B5Z       0.053950
     36 H3           1.9970     0.9390    -0.2700 hc         1 B5Z       0.053950
     37 H4           1.9970    -0.9390    -0.2700 hc         1 B5Z       0.053950
     38 H5           0.7660     0.9480     1.8480 hc         1 B5Z       0.066700
     39 H6           3.0780    -3.6040     7.6000 ha         1 B5Z       0.115000
     40 H8           2.6830    -5.9090     8.3580 ha         1 B5Z       0.124000
     41 H9           0.0600    -8.3420     5.3840 ha         1 B5Z       0.164000
     42 H10          2.4010    -7.5900     8.8990 ha         1 B5Z       0.108000
     43 H11          1.9970    -9.8960     9.6580 ha         1 B5Z       0.101000
     44 H12          0.6310   -11.4260     8.2960 ha         1 B5Z       0.102000
     45 H13         -0.9980   -11.6100     6.4210 hn         1 B5Z       0.158500
     46 H14         -1.9650   -12.1410     4.3460 hn         1 B5Z       0.164500
     47 H15         -0.2930   -11.6920     2.0750 h1         1 B5Z       0.036700
     48 H16         -1.5260   -10.4250     2.1340 h1         1 B5Z       0.036700
     49 H17         -3.2960   -12.1530     2.2010 h1         1 B5Z       0.009200
     50 H18         -2.0620   -13.4190     2.1400 h1         1 B5Z       0.009200
     51 H20         -3.3160   -14.0970     0.0220 h1         1 B5Z       0.019200
     52 H21         -4.3360   -12.6540     0.1660 h1         1 B5Z       0.019200
     53 H22         -3.5070   -11.8240    -1.9880 h1         1 B5Z       0.013950
     54 H23         -4.1630   -13.4580    -2.1900 h1         1 B5Z       0.013950
     55 H24         -0.0710   -13.0300    -2.0860 h1         1 B5Z       0.013950
     56 H25         -1.0600   -11.5670    -1.9260 h1         1 B5Z       0.013950
     57 H26         -0.8780   -13.8420     0.0840 h1         1 B5Z       0.019200
     58 H27         -0.1870   -12.2210     0.2730 h1         1 B5Z       0.019200
     59 H7           1.9020    -0.5220     3.6480 hn         1 B5Z       0.178500
@<TRIPOS>BOND
     1     1     2 1   
     2     1     3 1   
     3     1    34 1   
     4     1    35 1   
     5     2     3 1   
     6     2    36 1   
     7     2    37 1   
     8     3     4 1   
     9     3    38 1   
    10     4     5 2   
    11     4     6 1   
    12     6     7 1   
    13     6    59 1   
    14     7     8 2   
    15     7     9 1   
    16     8    12 1   
    17     9    10 1   
    18    10    11 ar  
    19    10    12 ar  
    20    11    15 ar  
    21    12    13 ar  
    22    13    14 ar  
    23    13    39 1   
    24    14    15 ar  
    25    14    40 1   
    26    15    16 1   
    27    16    17 ar  
    28    16    18 ar  
    29    17    21 ar  
    30    17    41 1   
    31    18    19 ar  
    32    18    42 1   
    33    19    20 ar  
    34    19    43 1   
    35    20    21 ar  
    36    20    44 1   
    37    21    22 1   
    38    22    23 1   
    39    22    45 1   
    40    23    24 2   
    41    23    25 1   
    42    25    26 1   
    43    25    46 1   
    44    26    27 1   
    45    26    47 1   
    46    26    48 1   
    47    27    28 1   
    48    27    49 1   
    49    27    50 1   
    50    28    29 1   
    51    28    33 1   
    52    29    30 1   
    53    29    51 1   
    54    29    52 1   
    55    30    31 1   
    56    30    53 1   
    57    30    54 1   
    58    31    32 1   
    59    32    33 1   
    60    32    55 1   
    61    32    56 1   
    62    33    57 1   
    63    33    58 1   
@<TRIPOS>SUBSTRUCTURE
     1 B5Z         1 TEMP              0 ****  ****    0 ROOT
