@<TRIPOS>MOLECULE
B60
   23    24     1     0     0
SMALL
bcc


@<TRIPOS>ATOM
      1 O2           0.0000     0.0000     0.0000 o          1 B60      -0.570500
      2 C1           1.2200     0.0000     0.0000 c          1 B60       0.598700
      3 C4           1.9420     0.0000     1.2100 cc         1 B60      -0.030600
      4 C7           3.3430     0.0070     1.1520 cd         1 B60       0.153600
      5 N6           3.9610     0.0030    -0.0260 nd         1 B60      -0.426300
      6 C5           3.2730    -0.0000    -1.1510 cc         1 B60       0.001800
      7 N8           3.9470    -0.0050    -2.3430 nz         1 B60       0.217400
      8 N3           1.9130    -0.0050    -1.1600 ns         1 B60       0.030600
      9 N9           1.3100    -0.0130     2.4170 ne         1 B60      -0.395300
     10 C10          1.9330     0.2740     3.5080 c2         1 B60       0.422200
     11 C11          3.3910     0.6550     3.5010 c3         1 B60       0.094500
     12 N12          4.0450     0.0260     2.3420 nh         1 B60      -0.319400
     13 C13          5.3860    -0.5560     2.4460 c3         1 B60       0.209100
     14 HN8          3.6620     0.7830    -2.8900 hn         1 B60       0.218800
     15 HN8A         3.7390    -0.8490    -2.8410 hn         1 B60       0.218800
     16 H10          1.3990     0.2400     4.4490 h4         1 B60       0.015800
     17 H11          3.4830     1.7320     3.4280 h1         1 B60       0.045700
     18 H13          5.3440    -1.6080     2.1910 h1         1 B60       0.021700
     19 H13A         5.7500    -0.4450     3.4610 h1         1 B60       0.021700
     20 H13B         6.0560    -0.0460     1.7650 h1         1 B60       0.021700
     21 H8           1.4220    -0.0080    -2.0320 hn         1 B60       0.186500
     22 H9           3.8600     0.3070     4.4140 h1         1 B60       0.045700
     23 H83          4.9320     0.0340    -2.1700 hn         1 B60       0.218800
@<TRIPOS>BOND
     1     1     2 2   
     2     2     3 1   
     3     2     8 1   
     4     3     4 2   
     5     3     9 1   
     6     4     5 1   
     7     4    12 1   
     8     5     6 2   
     9     6     7 1   
    10     6     8 1   
    11     7    14 1   
    12     7    15 1   
    13     7    23 1   
    14     8    21 1   
    15     9    10 2   
    16    10    11 1   
    17    10    16 1   
    18    11    12 1   
    19    11    17 1   
    20    11    22 1   
    21    12    13 1   
    22    13    18 1   
    23    13    19 1   
    24    13    20 1   
@<TRIPOS>SUBSTRUCTURE
     1 B60         1 TEMP              0 ****  ****    0 ROOT
