@<TRIPOS>MOLECULE
B61
   36    37     1     0     0
SMALL
bcc


@<TRIPOS>ATOM
      1 O2           0.0000     0.0000     0.0000 o          1 B61      -0.567500
      2 C1           1.2200     0.0000     0.0000 c          1 B61       0.593700
      3 C4           1.9410     0.0000     1.2110 cc         1 B61      -0.004600
      4 C7           3.3430     0.0060     1.1530 cd         1 B61       0.135600
      5 N6           3.9610     0.0010    -0.0250 nd         1 B61      -0.419300
      6 C5           3.2740    -0.0030    -1.1510 cc         1 B61      -0.020200
      7 N8           3.9480    -0.0070    -2.3420 nz         1 B61       0.223400
      8 N3           1.9130    -0.0070    -1.1600 ns         1 B61       0.027600
      9 N9           1.3090    -0.0140     2.4180 ne         1 B61      -0.375300
     10 C10          1.9320     0.2730     3.5090 c2         1 B61       0.390300
     11 C17          1.1880     0.2290     4.8180 c3         1 B61      -0.070700
     12 C23         -0.2180    -0.3270     4.5860 c3         1 B61       0.172800
     13 O24         -0.9170     0.5130     3.6650 oh         1 B61      -0.572800
     14 C25         -0.1190    -1.7420     4.0110 c3         1 B61      -0.034100
     15 C26         -0.9760    -0.3690     5.9150 c3         1 B61      -0.034100
     16 C11          3.3910     0.6530     3.5020 c3         1 B61       0.107500
     17 N12          4.0450     0.0250     2.3430 nh         1 B61      -0.329400
     18 C13          5.3850    -0.5590     2.4480 c3         1 B61       0.212100
     19 HN8          4.9310     0.0700    -2.1690 hn         1 B61       0.215467
     20 HN8A         3.7600    -0.8620    -2.8280 hn         1 B61       0.215467
     21 H17          1.1170     1.2290     5.2270 hc         1 B61       0.042700
     22 H17A         1.7180    -0.4090     5.5130 hc         1 B61       0.042700
     23 HO24        -1.7560     0.7470     4.0270 ho         1 B61       0.396000
     24 H25         -0.8940    -2.3630     4.4440 hc         1 B61       0.017867
     25 H25A        -0.2450    -1.7040     2.9360 hc         1 B61       0.017867
     26 H25B         0.8520    -2.1600     4.2470 hc         1 B61       0.017867
     27 H26         -0.4450    -1.0030     6.6140 hc         1 B61       0.017867
     28 H26A        -1.0490     0.6330     6.3200 hc         1 B61       0.017867
     29 H26B        -1.9710    -0.7650     5.7510 hc         1 B61       0.017867
     30 H11          3.4840     1.7300     3.4290 h1         1 B61       0.043700
     31 H13          5.6940    -0.5700     3.4860 h1         1 B61       0.019033
     32 H13A         5.3680    -1.5720     2.0660 h1         1 B61       0.019033
     33 H13B         6.0830     0.0340     1.8690 h1         1 B61       0.019033
     34 H16          1.4230    -0.0100    -2.0320 hn         1 B61       0.183500
     35 H171         3.8600     0.3040     4.4140 h1         1 B61       0.043700
     36 H83          3.6540     0.7740    -2.8940 hn         1 B61       0.215467
@<TRIPOS>BOND
     1     1     2 2   
     2     2     3 1   
     3     2     8 1   
     4     3     4 2   
     5     3     9 1   
     6     4     5 1   
     7     4    17 1   
     8     5     6 2   
     9     6     7 1   
    10     6     8 1   
    11     7    19 1   
    12     7    20 1   
    13     7    36 1   
    14     8    34 1   
    15     9    10 2   
    16    10    11 1   
    17    10    16 1   
    18    11    12 1   
    19    11    21 1   
    20    11    22 1   
    21    12    13 1   
    22    12    14 1   
    23    12    15 1   
    24    13    23 1   
    25    14    24 1   
    26    14    25 1   
    27    14    26 1   
    28    15    27 1   
    29    15    28 1   
    30    15    29 1   
    31    16    17 1   
    32    16    30 1   
    33    16    35 1   
    34    17    18 1   
    35    18    31 1   
    36    18    32 1   
    37    18    33 1   
@<TRIPOS>SUBSTRUCTURE
     1 B61         1 TEMP              0 ****  ****    0 ROOT
