@<TRIPOS>MOLECULE
molecule
   25    26     1     0     0
SMALL
bcc


@<TRIPOS>ATOM
      1 O12          0.0000     0.0000     0.0000 o          1 B62      -0.590500
      2 C1           1.2220     0.0000     0.0000 c          1 B62       0.691700
      3 N2           1.9140     0.0000     1.1600 ns         1 B62      -0.442400
      4 C6           1.9360    -0.0070    -1.2030 cc         1 B62       0.044800
      5 N7           1.2620    -0.0110    -2.4440 nu         1 B62      -0.741000
      6 C8           2.0210    -0.3710    -3.6530 c3         1 B62       0.209500
      7 C11          2.2450    -1.8840    -3.6910 c3         1 B62      -0.110100
      8 C9           3.3740     0.3530    -3.5990 c3         1 B62       0.224800
      9 N10          4.0470    -0.0180    -2.3460 nu         1 B62      -0.790000
     10 C5           3.3240    -0.0080    -1.1640 cd         1 B62       0.310600
     11 N4           3.9520     0.0020     0.0180 nd         1 B62      -0.573300
     12 C3           3.2740     0.0020     1.1460 cc         1 B62       0.373800
     13 N13          3.9560     0.0040     2.3360 nz         1 B62      -0.712600
     14 HN2          1.4240    -0.0000     2.0330 hn         1 B62       0.345500
     15 HN7          0.2920     0.2250    -2.5000 hn         1 B62       0.479800
     16 H8           1.4740    -0.0550    -4.5340 h1         1 B62       0.091700
     17 H11          2.9170    -2.1700    -2.8900 hc         1 B62       0.055033
     18 H11A         1.2970    -2.3930    -3.5660 hc         1 B62       0.055033
     19 H11B         2.6810    -2.1610    -4.6440 hc         1 B62       0.055033
     20 H9           3.2150     1.4240    -3.6220 h1         1 B62       0.073200
     21 H9A          3.9830     0.0500    -4.4420 h1         1 B62       0.073200
     22 HN10         5.0150    -0.2740    -2.3460 hn         1 B62       0.463800
     23 HN13         3.7270    -0.8200     2.8540 hn         1 B62       0.470467
     24 HN1A         4.9410     0.0220     2.1560 hn         1 B62       0.470467
     25 H133         3.6990     0.8140     2.8660 hn         1 B62       0.470467
@<TRIPOS>BOND
     1     1     2 2
     2     2     3 1
     3     2     4 1
     4     3    12 1
     5     4     5 1
     6     4    10 2
     7     5     6 1
     8     6     7 1
     9     6     8 1
    10     8     9 1
    11     9    10 1
    12    10    11 1
    13    11    12 2
    14    12    13 1
    15     3    14 1
    16     5    15 1
    17     6    16 1
    18     7    17 1
    19     7    18 1
    20     7    19 1
    21     8    20 1
    22     8    21 1
    23     9    22 1
    24    13    23 1
    25    13    24 1
    26    25    13 1
@<TRIPOS>SUBSTRUCTURE
     1 B62         1 TEMP              0 ****  ****    0 ROOT
