@<TRIPOS>MOLECULE
B63
   40    42     1     0     0
SMALL
bcc


@<TRIPOS>ATOM
      1 O3           0.0000     0.0000     0.0000 o          1 B63      -0.836300
      2 C15          1.2140     0.0000     0.0000 c          1 B63       0.973200
      3 O2           1.8890     0.0000     1.1660 o          1 B63      -0.836300
      4 C12          1.9510    -0.0050    -1.2770 ca         1 B63      -0.152600
      5 C11          1.2520    -0.0110    -2.4890 ca         1 B63      -0.025000
      6 C10          1.9400    -0.0150    -3.6750 ca         1 B63      -0.213500
      7 C13          3.3490     0.0000    -1.2800 ca         1 B63      -0.025000
      8 C14          4.0310    -0.0040    -2.4700 ca         1 B63      -0.213500
      9 C9           3.3320    -0.0150    -3.6740 ca         1 B63       0.032600
     10 N6           4.0260    -0.0210    -4.8790 nu         1 B63      -0.458600
     11 C2           3.2930    -0.0320    -6.1470 c3         1 B63       0.174800
     12 C1           4.2870    -0.0360    -7.3110 c3         1 B63      -0.072700
     13 C3           3.5330    -0.0480    -8.6150 c2         1 B63       0.381300
     14 C4           4.3010    -0.0530    -9.9110 c3         1 B63       0.100500
     15 N2           3.4860    -0.7040   -10.9500 nu         1 B63      -0.364000
     16 C5           2.1320    -0.4290   -10.9600 cc         1 B63       0.127600
     17 N5           1.4170    -0.4750   -12.0820 nc         1 B63      -0.443300
     18 C8           0.1230    -0.2210   -12.0710 cd         1 B63      -0.053200
     19 N4          -0.5760    -0.2800   -13.2460 nz         1 B63       0.238400
     20 N3          -0.5360     0.0950   -10.9230 ns         1 B63       0.024600
     21 C7           0.1280     0.1660    -9.7490 c          1 B63       0.597700
     22 O1          -0.4560     0.4500    -8.7170 o          1 B63      -0.573500
     23 C6           1.5120    -0.0970    -9.7460 cd         1 B63      -0.016600
     24 N1           2.2450    -0.0580    -8.5970 nf         1 B63      -0.395300
     25 H11          0.1690    -0.0110    -2.4910 ha         1 B63       0.123000
     26 H10          1.3990    -0.0220    -4.6140 ha         1 B63       0.095000
     27 H13          3.8930     0.0090    -0.3430 ha         1 B63       0.123000
     28 H14          5.1140    -0.0020    -2.4720 ha         1 B63       0.095000
     29 HN6          5.0270    -0.0170    -4.8800 hn         1 B63       0.281800
     30 H2           2.6670     0.8500    -6.2100 h1         1 B63       0.026700
     31 H2A          2.6730    -0.9190    -6.1980 h1         1 B63       0.026700
     32 H1           4.9060     0.8510    -7.2600 hc         1 B63       0.036700
     33 H1A          4.9130    -0.9180    -7.2480 hc         1 B63       0.036700
     34 HN4         -1.2710    -0.9970   -13.1860 hn         1 B63       0.205467
     35 HN4A        -1.0200     0.6010   -13.4140 hn         1 B63       0.205467
     36 H4           5.2260    -0.6020    -9.7810 h1         1 B63       0.038700
     37 H141         3.8970    -1.3200   -11.6230 hn         1 B63       0.308800
     38 H15         -1.5190     0.2810   -10.9500 hn         1 B63       0.178500
     39 H16          4.5170     0.9670   -10.2070 h1         1 B63       0.038700
     40 H43          0.0550    -0.4590   -14.0020 hn         1 B63       0.205467
@<TRIPOS>BOND
     1     1     2 1   
     2     2     3 1   
     3     2     4 1   
     4     4     5 ar  
     5     4     7 ar  
     6     5     6 ar  
     7     5    25 1   
     8     6     9 ar  
     9     6    26 1   
    10     7     8 ar  
    11     7    27 1   
    12     8     9 ar  
    13     8    28 1   
    14     9    10 1   
    15    10    11 1   
    16    10    29 1   
    17    11    12 1   
    18    11    30 1   
    19    11    31 1   
    20    12    13 1   
    21    12    32 1   
    22    12    33 1   
    23    13    14 1   
    24    13    24 2   
    25    14    15 1   
    26    14    36 1   
    27    14    39 1   
    28    15    16 1   
    29    15    37 1   
    30    16    17 1   
    31    16    23 2   
    32    17    18 2   
    33    18    19 1   
    34    18    20 1   
    35    19    34 1   
    36    19    35 1   
    37    19    40 1   
    38    20    21 1   
    39    20    38 1   
    40    21    22 2   
    41    21    23 1   
    42    23    24 1   
@<TRIPOS>SUBSTRUCTURE
     1 B63         1 TEMP              0 ****  ****    0 ROOT
