@<TRIPOS>MOLECULE
B64
   32    33     1     0     0
SMALL
bcc


@<TRIPOS>ATOM
      1 C1           0.0000     0.0000     0.0000 c          1 B64       0.855800
      2 C2           1.4740     0.0000     0.0000 ce         1 B64       0.293800
      3 C3           2.1460     0.0000     1.1630 cf         1 B64      -0.719200
      4 O1          -0.6740    -0.1480    -1.1570 o          1 B64      -0.831300
      5 O2          -0.6070     0.1290     1.0440 o          1 B64      -0.831300
      6 O7           0.5240    -1.2430     2.2900 o          1 B64      -0.603100
      7 N8           2.0340    -0.2660     3.5920 ns         1 B64      -0.007100
      8 C9           1.3840    -0.7000     4.7460 cc         1 B64       0.045600
      9 C10          1.7800    -0.3240     6.0110 cd         1 B64      -0.201700
     10 S11          0.7250    -1.0680     7.2050 ss         1 B64      -0.269800
     11 C12         -0.2120    -1.8580     5.9430 cd         1 B64       0.133900
     12 C13          0.2920    -1.5320     4.7160 cc         1 B64      -0.173000
     13 C14          2.8670     0.5270     6.3040 c          1 B64       0.778700
     14 O15          3.1640     0.8260     7.5870 os         1 B64      -0.409900
     15 C16          4.2770     1.6930     7.8100 c3         1 B64       0.265700
     16 O17          3.5380     0.9900     5.4000 o          1 B64      -0.631000
     17 C18         -1.3690    -2.7340     6.1750 cd         1 B64       0.115900
     18 C19         -1.8790    -3.0580     7.3960 cc         1 B64      -0.147000
     19 C20         -2.9700    -3.8980     7.3520 cc         1 B64      -0.129000
     20 C21         -3.3570    -4.2650     6.1260 cd         1 B64      -0.019100
     21 S22         -2.3150    -3.5220     4.9200 ss         1 B64      -0.206800
     22 CS1          1.5140    -0.5440     2.3810 c          1 B64       0.566300
     23 H2           2.0160     0.0100    -0.9380 ha         1 B64       0.069000
     24 H3           1.6430     0.7550     1.7540 ha         1 B64       0.247000
     25 HN8          2.9100     0.2140     3.6620 hn         1 B64       0.223500
     26 H13         -0.1310    -1.9080     3.7920 ha         1 B64       0.225000
     27 H16          4.4050     1.8500     8.8740 h1         1 B64      -0.005300
     28 H16A         4.0980     2.6440     7.3230 h1         1 B64      -0.005300
     29 H16B         5.1740     1.2420     7.4010 h1         1 B64      -0.005300
     30 H19         -1.4630    -2.6850     8.3240 ha         1 B64       0.127000
     31 H20         -3.4760    -4.2390     8.2470 ha         1 B64       0.110000
     32 H21         -4.1930    -4.9190     5.9080 h4         1 B64       0.142000
@<TRIPOS>BOND
     1     1     2 1   
     2     1     4 1   
     3     1     5 1   
     4     2     3 2   
     5     2    23 1   
     6     3    22 1   
     7     3    24 1   
     8     6    22 2   
     9     7     8 1   
    10     7    22 1   
    11     7    25 1   
    12     8     9 2   
    13     8    12 1   
    14     9    10 1   
    15     9    13 1   
    16    10    11 1   
    17    11    12 2   
    18    11    17 1   
    19    12    26 1   
    20    13    14 1   
    21    13    16 2   
    22    14    15 1   
    23    15    27 1   
    24    15    28 1   
    25    15    29 1   
    26    17    18 2   
    27    17    21 1   
    28    18    19 1   
    29    18    30 1   
    30    19    20 2   
    31    19    31 1   
    32    20    21 1   
    33    20    32 1   
@<TRIPOS>SUBSTRUCTURE
     1 B64         1 TEMP              0 ****  ****    0 ROOT
