@<TRIPOS>MOLECULE
molecule
   32    33     1     0     0
SMALL
bcc


@<TRIPOS>ATOM
      1 C1           0.0000     0.0000     0.0000 c          1 B64       0.939800
      2 C2           1.4740     0.0000     0.0000 ce         1 B64      -0.418200
      3 C3           2.1460     0.0000     1.1630 cf         1 B64      -0.158200
      4 O1          -0.6740    -0.1480    -1.1570 o          1 B64      -0.753800
      5 O2          -0.6070     0.1290     1.0440 o          1 B64      -0.753800
      6 O7           0.5240    -1.2430     2.2900 o          1 B64      -0.570100
      7 N8           2.0340    -0.2660     3.5920 ns         1 B64      -0.441100
      8 C9           1.3840    -0.7000     4.7460 cd         1 B64       0.175600
      9 C10          1.7800    -0.3240     6.0110 cc         1 B64      -0.217700
     10 S11          0.7250    -1.0680     7.2050 ss         1 B64      -0.126800
     11 C12         -0.2120    -1.8580     5.9430 cc         1 B64       0.074900
     12 C13          0.2920    -1.5320     4.7160 cd         1 B64      -0.183000
     13 C14          2.8670     0.5270     6.3040 c          1 B64       0.702700
     14 O15          3.1640     0.8260     7.5870 os         1 B64      -0.429900
     15 C16          4.2770     1.6930     7.8100 c3         1 B64       0.141700
     16 O17          3.5380     0.9900     5.4000 o          1 B64      -0.587000
     17 C18         -1.3690    -2.7340     6.1750 cc         1 B64       0.043900
     18 C19         -1.8790    -3.0580     7.3960 cd         1 B64      -0.168000
     19 C20         -2.9700    -3.8980     7.3520 cd         1 B64      -0.158000
     20 C21         -3.3570    -4.2650     6.1260 cc         1 B64      -0.104100
     21 S22         -2.3150    -3.5220     4.9200 ss         1 B64      -0.060800
     22 CS1          1.5140    -0.5440     2.3810 c          1 B64       0.591300
     23 H2           1.0490    -0.9950    -0.0550 ha         1 B64       0.186000
     24 H3           3.2290     0.0160     1.1310 ha         1 B64       0.118000
     25 HN8          2.9070     0.2200     3.6620 hn         1 B64       0.356500
     26 H13         -0.1310    -1.9080     3.7920 ha         1 B64       0.233000
     27 H16          5.1730     1.2420     7.4010 h1         1 B64       0.041367
     28 H16A         4.0970     2.6440     7.3230 h1         1 B64       0.041367
     29 H16B         4.4050     1.8500     8.8740 h1         1 B64       0.041367
     30 H19         -1.4630    -2.6850     8.3240 ha         1 B64       0.146000
     31 H20         -3.4760    -4.2390     8.2470 ha         1 B64       0.137000
     32 H21         -4.1930    -4.9190     5.9080 h4         1 B64       0.163000
@<TRIPOS>BOND
     1     1     2 1
     2     1     4 1
     3     2    23 1
     4     3     2 2
     5     3    24 1
     6     5     1 1
     7     6    22 2
     8     7    22 1
     9     7    25 1
    10     8     7 1
    11     9     8 2
    12     9    13 1
    13    10     9 1
    14    10    11 1
    15    11    12 2
    16    12     8 1
    17    12    26 1
    18    13    16 2
    19    14    13 1
    20    14    15 1
    21    15    27 1
    22    15    28 1
    23    15    29 1
    24    17    11 1
    25    17    18 2
    26    18    30 1
    27    19    18 1
    28    19    31 1
    29    20    19 2
    30    20    21 1
    31    20    32 1
    32    21    17 1
    33    22     3 1
@<TRIPOS>SUBSTRUCTURE
     1 B64         1 TEMP              0 ****  ****    0 ROOT
