@<TRIPOS>MOLECULE
molecule
   41    42     1     0     0
SMALL
bcc


@<TRIPOS>ATOM
      1 CAL          0.0000     0.0000     0.0000 ca         1 B65      -0.204000
      2 CAH          1.3810     0.0000     0.0000 ca         1 B65      -0.126500
      3 CAG          2.0730     0.0000     1.1980 ca         1 B65      -0.178000
      4 CAI          1.3860    -0.0000     2.3970 ca         1 B65      -0.126500
      5 CAM          0.0040    -0.0010     2.4020 ca         1 B65      -0.204000
      6 CAU         -0.6930    -0.0000     1.2020 ca         1 B65       0.166100
      7 OAS         -2.0520    -0.0000     1.2040 os         1 B65      -0.250200
      8 CAV         -2.6920    -0.0120     0.0050 ca         1 B65       0.069100
      9 CAO         -3.0190    -1.2190    -0.5960 ca         1 B65      -0.136000
     10 CAN         -3.0250     1.1840    -0.6170 ca         1 B65      -0.177000
     11 CAJ         -3.6750     1.1690    -1.8340 ca         1 B65      -0.135000
     12 CAK         -3.9950    -0.0360    -2.4350 ca         1 B65      -0.113000
     13 CAT         -3.6700    -1.2280    -1.8150 ca         1 B65      -0.020300
     14 CAQ         -4.0250    -2.5380    -2.4690 c3         1 B65      -0.046100
     15 CAP         -5.4170    -2.9750    -2.0110 c3         1 B65      -0.118400
     16 CAR         -5.7790    -4.3060    -2.6750 c3         1 B65       0.001600
     17 CAW         -7.1710    -4.7440    -2.2170 c3         1 B65      -0.360100
     18 PAX         -7.5400    -6.3970    -2.8900 p5         1 B65       1.091700
     19 OAB         -9.0060    -6.8570    -2.4080 o          1 B65      -0.887167
     20 OAC         -7.4960    -6.3450    -4.4980 o          1 B65      -0.887167
     21 OAA         -6.5330    -7.3650    -2.3990 o          1 B65      -0.887167
     22 SAY         -8.4050    -3.5570    -2.8180 s6         1 B65       1.276800
     23 OAF         -9.7190    -4.0380    -2.5720 o          1 B65      -0.738533
     24 OAE         -8.0340    -2.2300    -2.4670 o          1 B65      -0.738533
     25 OAD         -8.2670    -3.5980    -4.3320 o          1 B65      -0.738533
     26 HAL         -0.5420     0.0000    -0.9380 ha         1 B65       0.140500
     27 HAH          1.9220     0.0000    -0.9380 ha         1 B65       0.109500
     28 HAG          3.1570     0.0000     1.1960 ha         1 B65       0.101000
     29 HAI          1.9300    -0.0000     3.3330 ha         1 B65       0.109500
     30 HAM         -0.5350    -0.0010     3.3420 ha         1 B65       0.140500
     31 HAO         -2.7650    -2.1530    -0.1100 ha         1 B65       0.148000
     32 HAN         -2.7750     2.1270    -0.1470 ha         1 B65       0.111000
     33 HAJ         -3.9330     2.1020    -2.3210 ha         1 B65       0.111000
     34 HAK         -4.5050    -0.0450    -3.3910 ha         1 B65       0.153000
     35 HAQ         -3.2990    -3.2910    -2.1870 hc         1 B65       0.040200
     36 HAQA        -4.0200    -2.4170    -3.5450 hc         1 B65       0.040200
     37 HAP         -5.4220    -3.0960    -0.9350 hc         1 B65       0.067200
     38 HAPA        -6.1430    -2.2220    -2.2930 hc         1 B65       0.067200
     39 HAR         -5.0530    -5.0590    -2.3930 hc         1 B65       0.043200
     40 HARA        -5.7740    -4.1850    -3.7510 hc         1 B65       0.043200
     41 HAW         -7.2010    -4.7790    -1.1340 h1         1 B65       0.046700
@<TRIPOS>BOND
     1     1     2 ar
     2     1     6 ar
     3     2     3 ar
     4     3     4 ar
     5     4     5 ar
     6     5     6 ar
     7     6     7 1
     8     7     8 1
     9     8     9 ar
    10     8    10 ar
    11     9    13 ar
    12    10    11 ar
    13    11    12 ar
    14    12    13 ar
    15    13    14 1
    16    14    15 1
    17    15    16 1
    18    16    17 1
    19    17    18 1
    20    17    22 1
    21    18    19 1
    22    18    20 1
    23    18    21 1
    24    22    23 1
    25    22    24 1
    26    22    25 1
    27     1    26 1
    28     2    27 1
    29     3    28 1
    30     4    29 1
    31     5    30 1
    32     9    31 1
    33    10    32 1
    34    11    33 1
    35    12    34 1
    36    14    35 1
    37    14    36 1
    38    15    37 1
    39    15    38 1
    40    16    39 1
    41    16    40 1
    42    17    41 1
@<TRIPOS>SUBSTRUCTURE
     1 B65         1 TEMP              0 ****  ****    0 ROOT
