@<TRIPOS>MOLECULE
molecule
   45    46     1     0     0
SMALL
bcc


@<TRIPOS>ATOM
      1 C17          0.0000     0.0000     0.0000 ca         1 B66      -0.198500
      2 C18          1.3820     0.0000     0.0000 ca         1 B66      -0.030000
      3 C21          2.0740     0.0000     1.1970 ca         1 B66      -0.195200
      4 N19          3.5540    -0.0010     1.1950 no         1 B66       0.299200
      5 O20          4.1600    -0.0010     0.1390 o          1 B66      -0.207500
      6 O19          4.1650    -0.0000     2.2480 o          1 B66      -0.207500
      7 C20          1.3860     0.0010     2.3960 ca         1 B66      -0.030000
      8 C19          0.0040     0.0000     2.4010 ca         1 B66      -0.198500
      9 C16         -0.6930    -0.0000     1.2020 ca         1 B66       0.185100
     10 O14         -2.0520     0.0010     1.2030 os         1 B66      -0.327900
     11 C13         -2.6980     0.0020     2.4770 c3         1 B66       0.112400
     12 C11         -4.2160     0.0020     2.2800 c3         1 B66       0.158800
     13 O11         -4.6000     1.1690     1.5500 oh         1 B66      -0.585800
     14 C12         -4.6290    -1.2460     1.4980 c3         1 B66      -0.125100
     15 C10         -4.9080     0.0030     3.6440 c3         1 B66       0.451300
     16 O10         -4.5230     1.1680     4.3740 oh         1 B66      -0.594800
     17 N9          -6.3610     0.0030     3.4540 nu         1 B66      -0.817600
     18 C6          -7.1790    -0.6870     4.3430 ca         1 B66       0.217600
     19 C5          -8.5580    -0.6850     4.1610 ca         1 B66      -0.165000
     20 C1          -6.6150    -1.3840     5.4080 ca         1 B66      -0.209000
     21 C2          -7.4210    -2.0680     6.2890 ca         1 B66      -0.042000
     22 C3          -8.8080    -2.0640     6.1130 ca         1 B66      -0.030000
     23 C8          -9.6500    -2.7750     7.0270 cg         1 B66       0.227800
     24 N8         -10.3150    -3.3560     7.7420 n1         1 B66      -0.338800
     25 C4          -9.3710    -1.3680     5.0380 ca         1 B66      -0.093300
     26 C7         -10.8650    -1.3650     4.8410 c3         1 B66       0.673200
     27 F2         -11.1850    -0.6080     3.7090 f          1 B66      -0.215967
     28 F3         -11.3150    -2.6780     4.6660 f          1 B66      -0.215967
     29 F1         -11.4830    -0.8070     5.9650 f          1 B66      -0.215967
     30 H17         -0.5420    -0.0000    -0.9380 ha         1 B66       0.155500
     31 H18          1.9230     0.0000    -0.9380 ha         1 B66       0.170000
     32 H20          1.9300     0.0010     3.3330 ha         1 B66       0.170000
     33 H19         -0.5340     0.0010     3.3410 ha         1 B66       0.155500
     34 H13         -2.3050     0.8110     3.0810 h1         1 B66       0.054700
     35 H13A        -2.5150    -0.9420     2.9760 h1         1 B66       0.054700
     36 HO11        -4.2990     1.0960     0.6600 ho         1 B66       0.420000
     37 H12         -4.3460    -2.1310     2.0560 hc         1 B66       0.056033
     38 H12A        -5.7020    -1.2410     1.3490 hc         1 B66       0.056033
     39 H12B        -4.1310    -1.2510     0.5360 hc         1 B66       0.056033
     40 HN9         -6.7680     0.5450     2.7180 hn         1 B66       0.464800
     41 H5          -8.9940    -0.1460     3.3290 ha         1 B66       0.160000
     42 H1          -5.5400    -1.3870     5.5450 ha         1 B66       0.133000
     43 H2          -6.9810    -2.6100     7.1170 ha         1 B66       0.150000
     44 H15         -4.6170    -0.8820     4.1970 h2         1 B66       0.056700
     45 H16         -4.5330     0.9790     5.2980 ho         1 B66       0.408000
@<TRIPOS>BOND
     1     1     2 ar
     2     1     9 ar
     3     1    30 1
     4     2     3 ar
     5     2    31 1
     6     3     4 1
     7     3     7 ar
     8     4     5 1
     9     4     6 1
    10     7     8 ar
    11     7    32 1
    12     8     9 ar
    13     8    33 1
    14     9    10 1
    15    10    11 1
    16    11    12 1
    17    11    34 1
    18    11    35 1
    19    12    13 1
    20    12    14 1
    21    12    15 1
    22    13    36 1
    23    14    37 1
    24    14    38 1
    25    14    39 1
    26    15    16 1
    27    15    17 1
    28    17    18 1
    29    17    40 1
    30    18    19 ar
    31    18    20 ar
    32    19    25 ar
    33    19    41 1
    34    20    21 ar
    35    20    42 1
    36    21    22 ar
    37    21    43 1
    38    22    23 1
    39    22    25 ar
    40    23    24 3
    41    25    26 1
    42    26    27 1
    43    26    28 1
    44    26    29 1
    45    15    44 1
    46    16    45 1
@<TRIPOS>SUBSTRUCTURE
     1 B66         1 TEMP              0 ****  ****    0 ROOT
