@<TRIPOS>MOLECULE
B67
   42    43     1     0     0
SMALL
bcc


@<TRIPOS>ATOM
      1 F1           0.0000     0.0000     0.0000 f          1 B67      -0.199300
      2 C7           1.4000     0.0000     0.0000 c3         1 B67       0.652200
      3 F2           1.8650     0.0000     1.3190 f          1 B67      -0.199300
      4 F3           1.8660    -1.1420    -0.6600 f          1 B67      -0.199300
      5 C4           1.9010     1.2310    -0.7100 ca         1 B67      -0.101300
      6 C5           1.0030     2.1400    -1.2340 ca         1 B67      -0.102000
      7 C3           3.2610     1.4520    -0.8290 ca         1 B67      -0.415200
      8 N8           4.2210     0.4790    -0.2610 no         1 B67       1.041200
      9 O2           5.4190     0.6730    -0.3670 o          1 B67      -0.437000
     10 O1           3.8130    -0.5150     0.3100 o          1 B67      -0.437000
     11 C2           3.7260     2.5800    -1.4800 ca         1 B67       0.010000
     12 C1           2.8330     3.4910    -2.0110 ca         1 B67      -0.104000
     13 C6           1.4680     3.2750    -1.8870 ca         1 B67      -0.041400
     14 N9           0.5600     4.1970    -2.4200 ns         1 B67      -0.015100
     15 C10          0.8490     5.5130    -2.4030 c          1 B67       0.568100
     16 O10          1.9310     5.8920    -2.0060 o          1 B67      -0.624100
     17 C11         -0.1700     6.5140    -2.8810 c3         1 B67       0.092800
     18 O11         -1.4810     6.0640    -2.5320 oh         1 B67      -0.584800
     19 C12         -0.0690     6.6610    -4.4010 c3         1 B67      -0.033100
     20 C13          0.0960     7.8690    -2.2200 c3         1 B67       0.208400
     21 O14         -0.8710     8.8180    -2.6730 os         1 B67      -0.310900
     22 C16         -0.7750    10.0820    -2.1780 ca         1 B67       0.095100
     23 C17         -0.0020    11.0280    -2.8350 ca         1 B67       0.095400
     24 F17          0.6540    10.6960    -3.9670 f          1 B67      -0.095400
     25 C18          0.0940    12.3150    -2.3300 ca         1 B67       0.078900
     26 F18          0.8460    13.2370    -2.9690 f          1 B67      -0.092400
     27 C19         -0.5810    12.6560    -1.1680 ca         1 B67       0.092900
     28 F19         -0.4860    13.9100    -0.6770 f          1 B67      -0.090900
     29 C20         -1.3520    11.7110    -0.5110 ca         1 B67       0.078900
     30 F20         -2.0090    12.0450     0.6210 f          1 B67      -0.092400
     31 C21         -1.4540    10.4260    -1.0170 ca         1 B67       0.095400
     32 F21         -2.2100     9.5060    -0.3780 f          1 B67      -0.095400
     33 H5          -0.0620     1.9680    -1.1360 ha         1 B67       0.137000
     34 H2           4.7920     2.7500    -1.5740 ha         1 B67       0.141000
     35 H1           3.1990     4.3750    -2.5200 ha         1 B67       0.158000
     36 HN9         -0.3490     3.8910    -2.7080 hn         1 B67       0.185500
     37 HO11        -2.0230     6.0450    -3.3030 ho         1 B67       0.412000
     38 H12         -0.1710     5.6870    -4.8650 hc         1 B67       0.025700
     39 H12A         0.8930     7.0850    -4.6590 hc         1 B67       0.025700
     40 H12B        -0.8580     7.3140    -4.7530 hc         1 B67       0.025700
     41 H13          0.0250     7.7660    -1.1440 h1         1 B67       0.026200
     42 H13A         1.0900     8.2110    -2.4850 h1         1 B67       0.026200
@<TRIPOS>BOND
     1     1     2 1   
     2     2     3 1   
     3     2     4 1   
     4     2     5 1   
     5     5     6 ar  
     6     5     7 ar  
     7     6    13 ar  
     8     6    33 1   
     9     7     8 1   
    10     7    11 ar  
    11     8     9 1   
    12     8    10 1   
    13    11    12 ar  
    14    11    34 1   
    15    12    13 ar  
    16    12    35 1   
    17    13    14 1   
    18    14    15 1   
    19    14    36 1   
    20    15    16 2   
    21    15    17 1   
    22    17    18 1   
    23    17    19 1   
    24    17    20 1   
    25    18    37 1   
    26    19    38 1   
    27    19    39 1   
    28    19    40 1   
    29    20    21 1   
    30    20    41 1   
    31    20    42 1   
    32    21    22 1   
    33    22    23 ar  
    34    22    31 ar  
    35    23    24 1   
    36    23    25 ar  
    37    25    26 1   
    38    25    27 ar  
    39    27    28 1   
    40    27    29 ar  
    41    29    30 1   
    42    29    31 ar  
    43    31    32 1   
@<TRIPOS>SUBSTRUCTURE
     1 B67         1 TEMP              0 ****  ****    0 ROOT
