@<TRIPOS>MOLECULE
B68
   49    50     1     0     0
SMALL
bcc


@<TRIPOS>ATOM
      1 C24          0.0000     0.0000     0.0000 c3         1 B68      -0.069100
      2 C23          1.5070     0.0000     0.0000 c          1 B68       0.559100
      3 O23          2.1140     0.0000     1.0500 o          1 B68      -0.637100
      4 N22          2.1810     0.0010    -1.1680 ns         1 B68      -0.037100
      5 C19          3.5800     0.0990    -1.1680 ca         1 B68      -0.131400
      6 C18          4.3180    -0.5020    -0.1590 ca         1 B68      -0.072500
      7 C17          5.6960    -0.4060    -0.1610 ca         1 B68      -0.158500
      8 C20          4.2260     0.7930    -2.1830 ca         1 B68      -0.072500
      9 C21          5.6030     0.8870    -2.1840 ca         1 B68      -0.158500
     10 C16          6.3410     0.2910    -1.1720 ca         1 B68       0.139100
     11 O14          7.6980     0.3860    -1.1740 os         1 B68      -0.310900
     12 C13          8.2950     1.1190    -2.2440 c3         1 B68       0.195400
     13 C11          9.8170     1.1170    -2.0780 c3         1 B68       0.091800
     14 O11         10.1600     1.7270    -0.8330 oh         1 B68      -0.587800
     15 C12         10.3290    -0.3250    -2.0980 c3         1 B68      -0.030100
     16 C10         10.4470     1.8900    -3.2080 c          1 B68       0.570100
     17 O10          9.8640     2.0030    -4.2650 o          1 B68      -0.625100
     18 N9          11.6590     2.4550    -3.0430 ns         1 B68      -0.017100
     19 C6          12.2020     3.2530    -4.0560 ca         1 B68      -0.038400
     20 C5          12.9750     4.3590    -3.7300 ca         1 B68      -0.103000
     21 C1          11.9730     2.9380    -5.3890 ca         1 B68      -0.104000
     22 C2          12.5100     3.7280    -6.3870 ca         1 B68       0.009000
     23 C3          13.2760     4.8320    -6.0590 ca         1 B68      -0.416200
     24 N8          13.8510     5.6760    -7.1310 no         1 B68       1.041200
     25 O1          13.6490     5.3980    -8.2990 o          1 B68      -0.438000
     26 O2          14.5260     6.6480    -6.8430 o          1 B68      -0.438000
     27 C4          13.5100     5.1460    -4.7320 ca         1 B68      -0.101300
     28 C7          14.3490     6.3460    -4.3810 c3         1 B68       0.652200
     29 F2          14.4430     6.4580    -2.9890 f          1 B68      -0.199633
     30 F1          15.6300     6.1960    -4.9240 f          1 B68      -0.199633
     31 F3          13.7540     7.5000    -4.9010 f          1 B68      -0.199633
     32 H24         -0.3610     0.9160    -0.4530 hc         1 B68       0.024033
     33 H24A        -0.3610    -0.8500    -0.5670 hc         1 B68       0.024033
     34 H24B        -0.3610    -0.0660     1.0190 hc         1 B68       0.024033
     35 HN22         1.6880    -0.1160    -2.0300 hn         1 B68       0.166500
     36 H18          3.8150    -1.0470     0.6310 ha         1 B68       0.125500
     37 H17          6.2730    -0.8730     0.6280 ha         1 B68       0.120000
     38 H20          3.6500     1.2580    -2.9740 ha         1 B68       0.125500
     39 H21          6.1080     1.4300    -2.9740 ha         1 B68       0.120000
     40 H13          8.0340     0.6570    -3.1880 h1         1 B68       0.026700
     41 H13A         7.9330     2.1400    -2.2290 h1         1 B68       0.026700
     42 HO11        10.4820     1.0700    -0.2390 ho         1 B68       0.412000
     43 H12         11.4110    -0.3230    -2.1400 hc         1 B68       0.023700
     44 H12A         9.9340    -0.8360    -2.9680 hc         1 B68       0.023700
     45 H12B        10.0040    -0.8360    -1.2000 hc         1 B68       0.023700
     46 HN9         12.1210     2.3910    -2.1580 hn         1 B68       0.186500
     47 H5          13.1590     4.6060    -2.6910 ha         1 B68       0.137000
     48 H1          11.3730     2.0730    -5.6460 ha         1 B68       0.157000
     49 H2          12.3310     3.4820    -7.4260 ha         1 B68       0.140000
@<TRIPOS>BOND
     1     1     2 1   
     2     1    32 1   
     3     1    33 1   
     4     1    34 1   
     5     2     3 2   
     6     2     4 1   
     7     4     5 1   
     8     4    35 1   
     9     5     6 ar  
    10     5     8 ar  
    11     6     7 ar  
    12     6    36 1   
    13     7    10 ar  
    14     7    37 1   
    15     8     9 ar  
    16     8    38 1   
    17     9    10 ar  
    18     9    39 1   
    19    10    11 1   
    20    11    12 1   
    21    12    13 1   
    22    12    40 1   
    23    12    41 1   
    24    13    14 1   
    25    13    15 1   
    26    13    16 1   
    27    14    42 1   
    28    15    43 1   
    29    15    44 1   
    30    15    45 1   
    31    16    17 2   
    32    16    18 1   
    33    18    19 1   
    34    18    46 1   
    35    19    20 ar  
    36    19    21 ar  
    37    20    27 ar  
    38    20    47 1   
    39    21    22 ar  
    40    21    48 1   
    41    22    23 ar  
    42    22    49 1   
    43    23    24 1   
    44    23    27 ar  
    45    24    25 1   
    46    24    26 1   
    47    27    28 1   
    48    28    29 1   
    49    28    30 1   
    50    28    31 1   
@<TRIPOS>SUBSTRUCTURE
     1 B68         1 TEMP              0 ****  ****    0 ROOT
