@<TRIPOS>MOLECULE
molecule
   47    50     1     0     0
SMALL
bcc


@<TRIPOS>ATOM
      1 CAM          0.0000     0.0000     0.0000 c3         1 B6A      -0.073900
      2 CAK          1.5300     0.0000     0.0000 c3         1 B6A       0.159300
      3 NAQ          2.0210     0.0000     1.3840 n7         1 B6A      -0.820200
      4 CAL          1.5880     1.2050     2.1020 c3         1 B6A       0.159300
      5 CAN          0.0600     1.2400     2.1650 c3         1 B6A      -0.073900
      6 CAX         -0.5050     1.2410     0.7420 c3         1 B6A      -0.093700
      7 CAO         -2.0340     1.2150     0.7980 c3         1 B6A       0.056300
      8 NAY         -2.5220     2.4580     1.4000 na         1 B6A      -0.168300
      9 CAW         -2.8410     3.6290     0.7300 ca         1 B6A      -0.117200
     10 CAJ         -2.8190     4.0080    -0.5970 ca         1 B6A      -0.088000
     11 CAU         -2.7520     2.6810     2.7270 cc         1 B6A       0.660700
     12 NAA         -2.5610     1.7560     3.7290 nv         1 B6A      -0.995800
     13 NAP         -3.1840     3.9070     2.9050 nd         1 B6A      -0.633100
     14 CAV         -3.2600     4.5430     1.7180 ca         1 B6A       0.136400
     15 CAI         -3.6500     5.8350     1.3460 ca         1 B6A      -0.097000
     16 CAH         -3.6250     6.2060     0.0360 ca         1 B6A      -0.087000
     17 CAT         -3.2150     5.3010    -0.9530 ca         1 B6A      -0.170600
     18 CAR         -3.1950     5.7130    -2.3660 c          1 B6A       0.594300
     19 OAB         -3.4040     6.8740    -2.6650 o          1 B6A      -0.527100
     20 CAS         -2.9200     4.7180    -3.4230 ca         1 B6A      -0.161600
     21 CAF         -3.3630     3.4010    -3.2790 ca         1 B6A      -0.090500
     22 CAD         -3.1040     2.4770    -4.2690 ca         1 B6A      -0.141500
     23 CAC         -2.4050     2.8520    -5.4040 ca         1 B6A      -0.107000
     24 CAE         -1.9630     4.1540    -5.5530 ca         1 B6A      -0.141500
     25 CAG         -2.2210     5.0900    -4.5730 ca         1 B6A      -0.090500
     26 H1          -0.3610    -0.8910     0.5000 hc         1 B6A       0.051200
     27 H2          -0.3600     0.0190    -1.0210 hc         1 B6A       0.051200
     28 H3           1.8900     0.8860    -0.5090 h1         1 B6A       0.034450
     29 H4           1.8890    -0.8860    -0.5090 h1         1 B6A       0.034450
     30 H5           3.0210    -0.0470     1.3830 hn         1 B6A       0.355800
     31 H7           1.9470     2.0840     1.5800 h1         1 B6A       0.034450
     32 H8           1.9890     1.1880     3.1080 h1         1 B6A       0.034450
     33 H9          -0.2590     2.1390     2.6790 hc         1 B6A       0.051200
     34 H10         -0.3000     0.3670     2.6950 hc         1 B6A       0.051200
     35 H11         -0.1720     2.1310     0.2220 hc         1 B6A       0.064700
     36 H12         -2.4300     1.1210    -0.2060 h1         1 B6A       0.060200
     37 H13         -2.3590     0.3720     1.3960 h1         1 B6A       0.060200
     38 H14         -2.5020     3.3060    -1.3590 ha         1 B6A       0.143000
     39 H15         -1.9460     1.9650     4.4910 hn         1 B6A       0.448300
     40 H16         -3.0850     0.9030     3.7290 hn         1 B6A       0.448300
     41 H17         -3.9680     6.5430     2.1030 ha         1 B6A       0.147000
     42 H18         -3.9310     7.2070    -0.2450 ha         1 B6A       0.154000
     43 H19         -3.9100     3.1060    -2.3910 ha         1 B6A       0.146000
     44 H20         -3.4470     1.4560    -4.1580 ha         1 B6A       0.133000
     45 H21         -2.2020     2.1210    -6.1780 ha         1 B6A       0.131000
     46 H22         -1.4190     4.4420    -6.4450 ha         1 B6A       0.133000
     47 H23         -1.8740     6.1100    -4.6910 ha         1 B6A       0.146000
@<TRIPOS>BOND
     1     2     3 1
     2     2     1 1
     3     3     4 1
     4     1     6 1
     5     4     5 1
     6     6     5 1
     7     6     7 1
     8    12    11 1
     9    13    11 2
    10    13    14 1
    11    11     8 1
    12    14    15 ar
    13    14     9 ar
    14     8     7 1
    15     8     9 1
    16    15    16 ar
    17     9    10 ar
    18    16    17 ar
    19    19    18 2
    20    10    17 ar
    21    17    18 1
    22    18    20 1
    23    21    20 ar
    24    21    22 ar
    25    20    25 ar
    26    22    23 ar
    27    25    24 ar
    28    23    24 ar
    29     1    26 1
    30     1    27 1
    31     2    28 1
    32     2    29 1
    33     3    30 1
    34     4    31 1
    35     4    32 1
    36     5    33 1
    37     5    34 1
    38     6    35 1
    39     7    36 1
    40     7    37 1
    41    10    38 1
    42    12    39 1
    43    12    40 1
    44    15    41 1
    45    16    42 1
    46    21    43 1
    47    22    44 1
    48    23    45 1
    49    24    46 1
    50    25    47 1
@<TRIPOS>SUBSTRUCTURE
     1 B6A         1 TEMP              0 ****  ****    0 ROOT
