@<TRIPOS>MOLECULE
B6B
   39    41     1     0     0
SMALL
bcc


@<TRIPOS>ATOM
      1 CAA          0.0000     0.0000     0.0000 c3         1 B6B       0.239700
      2 OAP          1.4290     0.0000     0.0000 os         1 B6B      -0.295900
      3 CAV          2.0460     0.0000     1.2110 ca         1 B6B       0.173100
      4 CAI          1.2930    -0.0010     2.3740 ca         1 B6B      -0.206000
      5 CAH          1.9180    -0.0000     3.6060 ca         1 B6B      -0.061000
      6 CAR          3.3050     0.0010     3.6870 ca         1 B6B      -0.013400
      7 NAB          3.9320     0.0070     4.9380 nv         1 B6B      -0.555200
      8 CAL          4.0690     0.0000     2.5300 ca         1 B6B      -0.068000
      9 CAW          3.4420    -0.0050     1.2850 cp         1 B6B      -0.174500
     10 CAU          4.2530    -0.0060     0.0450 cp         1 B6B       0.227500
     11 NAO          3.9180    -0.7970    -0.9650 nb         1 B6B      -0.423000
     12 CAK          5.3680     0.8340    -0.0620 ca         1 B6B       0.397900
     13 NAN          6.0940     0.8380    -1.1630 nb         1 B6B      -0.649000
     14 CAS          5.7680     0.0440    -2.1780 ca         1 B6B       0.454900
     15 NAC          6.5290     0.0490    -3.3320 nv         1 B6B      -0.512500
     16 CAX          4.6460    -0.7970    -2.0780 ca         1 B6B       0.061500
     17 CAQ          4.2770    -1.6770    -3.2040 c          1 B6B       0.595200
     18 OAD          5.0110    -1.7690    -4.1690 o          1 B6B      -0.603100
     19 CAT          3.0160    -2.4460    -3.1590 ca         1 B6B      -0.309900
     20 CAG          2.5900    -3.1810    -4.2720 ca         1 B6B      -0.007000
     21 CAE          1.4030    -3.8840    -4.1770 ca         1 B6B      -0.253300
     22 CAF          0.6810    -3.8390    -2.9980 ca         1 B6B       0.432200
     23 NAM          1.1060    -3.1380    -1.9640 nb         1 B6B      -0.606000
     24 CAJ          2.2320    -2.4570    -2.0030 ca         1 B6B       0.410200
     25 H1          -0.3610     0.8680     0.5380 h1         1 B6B       0.000367
     26 H2          -0.3610     0.0320    -1.0210 h1         1 B6B       0.000367
     27 H3          -0.3610    -0.9000     0.4820 h1         1 B6B       0.000367
     28 H4           0.2110    -0.0010     2.3170 ha         1 B6B       0.123000
     29 H5           1.3240    -0.0010     4.5120 ha         1 B6B       0.106000
     30 H6           4.2200    -0.8550     5.3580 hn         1 B6B       0.270300
     31 H7           4.0960     0.8730     5.4120 hn         1 B6B       0.270300
     32 H8           5.1500    -0.0010     2.5940 ha         1 B6B       0.112000
     33 H9           5.6360     1.4820     0.7630 h4         1 B6B      -0.009900
     34 H10          6.2490    -0.5040    -4.1180 hn         1 B6B       0.301800
     35 H11          7.3470     0.6220    -3.3900 hn         1 B6B       0.301800
     36 H12          3.1750    -3.1990    -5.1830 ha         1 B6B       0.121000
     37 H13          1.0410    -4.4640    -5.0180 ha         1 B6B       0.114000
     38 H14         -0.2500    -4.3870    -2.9220 h4         1 B6B      -0.025900
     39 H15          2.5490    -1.8930    -1.1340 h4         1 B6B       0.059100
@<TRIPOS>BOND
     1     1     2 1   
     2     1    25 1   
     3     1    26 1   
     4     1    27 1   
     5     2     3 1   
     6     3     4 ar  
     7     3     9 ar  
     8     4     5 ar  
     9     4    28 1   
    10     5     6 ar  
    11     5    29 1   
    12     6     7 1   
    13     6     8 ar  
    14     7    30 1   
    15     7    31 1   
    16     8     9 ar  
    17     8    32 1   
    18     9    10 1   
    19    10    11 ar  
    20    10    12 ar  
    21    11    16 ar  
    22    12    13 ar  
    23    12    33 1   
    24    13    14 ar  
    25    14    15 1   
    26    14    16 ar  
    27    15    34 1   
    28    15    35 1   
    29    16    17 1   
    30    17    18 2   
    31    17    19 1   
    32    19    20 ar  
    33    19    24 ar  
    34    20    21 ar  
    35    20    36 1   
    36    21    22 ar  
    37    21    37 1   
    38    22    23 ar  
    39    22    38 1   
    40    23    24 ar  
    41    24    39 1   
@<TRIPOS>SUBSTRUCTURE
     1 B6B         1 TEMP              0 ****  ****    0 ROOT
