@<TRIPOS>MOLECULE
molecule
   39    41     1     0     0
SMALL
bcc


@<TRIPOS>ATOM
      1 CAA          0.0000     0.0000     0.0000 c3         1 B6B       0.127700
      2 OAP          1.4290     0.0000     0.0000 os         1 B6B      -0.314900
      3 CAV          2.0460     0.0000     1.2110 ca         1 B6B       0.163100
      4 CAI          1.2930    -0.0010     2.3740 ca         1 B6B      -0.218000
      5 CAH          1.9180    -0.0000     3.6060 ca         1 B6B      -0.096000
      6 CAR          3.3050     0.0010     3.6870 ca         1 B6B       0.123600
      7 NAB          3.9320     0.0070     4.9380 nv         1 B6B      -0.987200
      8 CAL          4.0690     0.0000     2.5300 ca         1 B6B      -0.098000
      9 CAW          3.4420    -0.0050     1.2850 cp         1 B6B      -0.169500
     10 CAU          4.2530    -0.0060     0.0450 cp         1 B6B       0.291500
     11 NAO          3.9180    -0.7970    -0.9650 nb         1 B6B      -0.578000
     12 CAK          5.3680     0.8340    -0.0620 ca         1 B6B       0.396900
     13 NAN          6.0940     0.8380    -1.1630 nb         1 B6B      -0.739000
     14 CAS          5.7680     0.0440    -2.1780 ca         1 B6B       0.635900
     15 NAC          6.5290     0.0490    -3.3320 nv         1 B6B      -0.984500
     16 CAX          4.6460    -0.7970    -2.0780 ca         1 B6B       0.143500
     17 CAQ          4.2770    -1.6770    -3.2040 c          1 B6B       0.530200
     18 OAD          5.0110    -1.7690    -4.1690 o          1 B6B      -0.565100
     19 CAT          3.0160    -2.4460    -3.1590 ca         1 B6B      -0.304900
     20 CAG          2.5900    -3.1810    -4.2720 ca         1 B6B      -0.036000
     21 CAE          1.4030    -3.8840    -4.1770 ca         1 B6B      -0.283300
     22 CAF          0.6810    -3.8390    -2.9980 ca         1 B6B       0.444200
     23 NAM          1.1060    -3.1380    -1.9640 nb         1 B6B      -0.712000
     24 CAJ          2.2320    -2.4570    -2.0030 ca         1 B6B       0.464200
     25 H1          -0.3610     0.8680     0.5380 h1         1 B6B       0.043700
     26 H2          -0.3610     0.0320    -1.0210 h1         1 B6B       0.043700
     27 H3          -0.3610    -0.9000     0.4820 h1         1 B6B       0.043700
     28 H4           0.2110    -0.0010     2.3170 ha         1 B6B       0.140000
     29 H5           1.3240    -0.0010     4.5120 ha         1 B6B       0.138000
     30 H6           4.2200    -0.8550     5.3580 hn         1 B6B       0.426300
     31 H7           4.0960     0.8730     5.4120 hn         1 B6B       0.426300
     32 H8           5.1500    -0.0010     2.5940 ha         1 B6B       0.141000
     33 H9           5.6360     1.4820     0.7630 h4         1 B6B       0.037100
     34 H10          6.2490    -0.5040    -4.1180 hn         1 B6B       0.460300
     35 H11          7.3470     0.6220    -3.3900 hn         1 B6B       0.460300
     36 H12          3.1750    -3.1990    -5.1830 ha         1 B6B       0.152000
     37 H13          1.0410    -4.4640    -5.0180 ha         1 B6B       0.139000
     38 H14         -0.2500    -4.3870    -2.9220 h4         1 B6B       0.019100
     39 H15          2.5490    -1.8930    -1.1340 h4         1 B6B       0.097100
@<TRIPOS>BOND
     1    23    22 ar
     2    23    24 ar
     3    22    21 ar
     4    24    19 ar
     5     7     6 1
     6    21    20 ar
     7    19    20 ar
     8    19    17 1
     9     6     8 ar
    10     6     5 ar
    11     8     9 ar
    12    17    18 2
    13    17    16 1
    14     5     4 ar
    15    11    16 ar
    16    11    10 ar
    17    16    14 ar
    18     9    10 1
    19     9     3 ar
    20    10    12 ar
    21    14    15 1
    22    14    13 ar
    23     4     3 ar
    24     3     2 1
    25    12    13 ar
    26     2     1 1
    27     1    25 1
    28     1    26 1
    29     1    27 1
    30     4    28 1
    31     5    29 1
    32     7    30 1
    33     7    31 1
    34     8    32 1
    35    12    33 1
    36    15    34 1
    37    15    35 1
    38    20    36 1
    39    21    37 1
    40    22    38 1
    41    24    39 1
@<TRIPOS>SUBSTRUCTURE
     1 B6B         1 TEMP              0 ****  ****    0 ROOT
