@<TRIPOS>MOLECULE
molecule
   50    52     1     0     0
SMALL
bcc


@<TRIPOS>ATOM
      1 C8           0.0000     0.0000     0.0000 c3         1 B6G       0.147800
      2 C5           1.9250     0.0000     1.3460 c3         1 B6G       0.080900
      3 C6           0.7030    -0.0450     2.2870 c3         1 B6G      -0.010900
      4 N1          -0.5090    -0.8210    -1.1030 na         1 B6G      -0.256000
      5 C2           6.7610     6.7360     0.5590 c3         1 B6G      -0.115100
      6 N3          -3.9500    -0.9720    -3.2310 nb         1 B6G      -0.774000
      7 C4           6.0590     3.0560     1.3500 c          1 B6G       0.678100
      8 O7           6.7920     2.1780     0.9610 o          1 B6G      -0.469000
      9 C3           6.5920     4.4500     1.5540 c3         1 B6G       0.013500
     10 N            8.0550     4.4000     1.6850 nz         1 B6G      -0.856600
     11 C1           6.2190     5.3210     0.3520 c3         1 B6G      -0.102700
     12 C            4.6950     5.3730     0.2160 c3         1 B6G      -0.115100
     13 O            4.7670     2.7890     1.6020 os         1 B6G      -0.507500
     14 O5           5.0190     0.2960     2.3960 o          1 B6G      -0.748500
     15 O6           4.5970     0.8670    -0.0260 o          1 B6G      -0.748500
     16 O1           2.6820     1.1880     1.5870 os         1 B6G      -0.605200
     17 O4           1.4360     0.0000     0.0000 os         1 B6G      -0.306600
     18 C7          -0.4040    -0.6200     1.3610 c3         1 B6G       0.045100
     19 O3          -1.6990    -0.1710     1.7680 oh         1 B6G      -0.532800
     20 O2           0.3590     1.2670     2.7370 oh         1 B6G      -0.568800
     21 C13          0.1540    -1.8370    -1.7240 cc         1 B6G       0.458700
     22 N5          -0.5930    -2.3480    -2.6590 nd         1 B6G      -0.584100
     23 C12         -1.7790    -1.6950    -2.6970 ca         1 B6G      -0.152200
     24 C9          -1.7410    -0.7110    -1.6940 ca         1 B6G       0.438800
     25 C11         -2.9440    -1.8060    -3.4750 ca         1 B6G       0.771200
     26 N4          -3.0410    -2.7610    -4.4720 nv         1 B6G      -1.072500
     27 C10         -3.8720    -0.0690    -2.2700 ca         1 B6G       0.696900
     28 N2          -2.8000     0.0740    -1.5190 nb         1 B6G      -0.745000
     29 H1          -0.3740     1.0140    -0.0750 h2         1 B6G       0.110700
     30 H2           1.1370     0.6260     0.9460 h2         1 B6G       0.351700
     31 H3           1.3510    -0.8210     2.6750 h1         1 B6G       0.193700
     32 H4           5.8360     6.8650     1.1080 hc         1 B6G       0.063533
     33 H5           7.6460     6.7760     1.1830 hc         1 B6G       0.063533
     34 H6           6.8100     7.3200    -0.3520 hc         1 B6G       0.063533
     35 H7           6.1630     4.8730     2.4540 hx         1 B6G       0.121700
     36 H8           7.7120     4.7960     2.5380 hn         1 B6G       0.481133
     37 H9           8.4340     3.4780     1.7760 hn         1 B6G       0.481133
     38 H11          6.6480     4.8970    -0.5480 hc         1 B6G       0.081700
     39 H12          4.4030     6.3320    -0.1950 hc         1 B6G       0.063533
     40 H13          4.2410     5.2450     1.1900 hc         1 B6G       0.063533
     41 H14          4.3650     4.5810    -0.4450 hc         1 B6G       0.063533
     42 H16         -0.3530    -1.7010     1.3240 h1         1 B6G       0.077700
     43 H17         -1.6750    -1.1130     1.7410 ho         1 B6G       0.414000
     44 H18          0.3010     1.2720     3.6780 ho         1 B6G       0.414000
     45 H19          1.1550    -2.1690    -1.4770 h5         1 B6G       0.107800
     46 H20         -2.7620    -2.5380    -5.4070 hn         1 B6G       0.443300
     47 H21         -3.4170    -3.6650    -4.2640 hn         1 B6G       0.443300
     48 H22         -4.7150     0.5910    -2.1050 h5         1 B6G       0.061100
     49 P            4.2730     1.2760     1.3590 p5         1 B6G       1.297800
     50 HN3          8.5490     5.0430     1.0990 hn         1 B6G       0.481133
@<TRIPOS>BOND
     1    20     3 1
     2    19    18 1
     3     3    18 1
     4     3     2 1
     5    18     1 1
     6    15    49 1
     7    16     2 1
     8    16    49 1
     9     2    17 1
    10     1    17 1
    11     1     4 1
    12    49    14 1
    13    49    13 1
    14    28    24 ar
    15    28    27 ar
    16     4    24 1
    17     4    21 1
    18    13     7 1
    19    24    23 ar
    20    27     6 ar
    21    21    22 2
    22     7     8 2
    23     7     9 1
    24    23    22 1
    25    23    25 ar
    26     6    25 ar
    27    10     9 1
    28    25    26 1
    29     9    11 1
    30    11    12 1
    31    11     5 1
    32     1    29 1
    33     2    30 1
    34     3    31 1
    35     5    32 1
    36     5    33 1
    37     5    34 1
    38     9    35 1
    39    10    36 1
    40    10    37 1
    41    11    38 1
    42    12    39 1
    43    12    40 1
    44    12    41 1
    45    18    42 1
    46    19    43 1
    47    20    44 1
    48    21    45 1
    49    26    46 1
    50    26    47 1
    51    27    48 1
    52    50    10 1
@<TRIPOS>SUBSTRUCTURE
     1 B6G         1 TEMP              0 ****  ****    0 ROOT
