@<TRIPOS>MOLECULE
molecule
   65    68     1     0     0
SMALL
bcc


@<TRIPOS>ATOM
      1 CAQ          0.0000     0.0000     0.0000 c3         1 B6H       0.166300
      2 CAO          1.5300     0.0000     0.0000 c3         1 B6H       0.160300
      3 NBH          2.0180     0.0000     1.3860 n3         1 B6H      -0.733600
      4 CAC          3.4840    -0.0770     1.4290 c3         1 B6H       0.153100
      5 CAP          1.5310     1.1810     2.1130 c3         1 B6H       0.160300
      6 CAR          0.0000     1.1810     2.1130 c3         1 B6H       0.166300
      7 NBI         -0.4870     1.1800     0.7270 nh         1 B6H      -0.600000
      8 CBC         -1.8840     1.2540     0.6860 ca         1 B6H       0.121600
      9 CAN         -2.5430     2.3050     1.3110 ca         1 B6H      -0.226000
     10 CBF         -3.9240     2.3760     1.2710 ca         1 B6H       0.120100
     11 OAV         -4.5720     3.4030     1.8820 os         1 B6H      -0.345900
     12 CAB         -3.7620     4.3750     2.5480 c3         1 B6H       0.132700
     13 CAL         -2.6100     0.2790     0.0160 ca         1 B6H      -0.197000
     14 CAM         -3.9900     0.3480    -0.0260 ca         1 B6H      -0.107000
     15 CBD         -4.6520     1.3930     0.6010 ca         1 B6H       0.096600
     16 NAU         -6.0520     1.4630     0.5590 nu         1 B6H      -0.715300
     17 CBE         -6.7790     0.4070     0.0570 cc         1 B6H       0.739300
     18 SAW         -8.4770     0.4010    -0.1320 ss         1 B6H      -0.194300
     19 NAS         -6.2650    -0.7210    -0.3420 nd         1 B6H      -0.814000
     20 CBA         -7.0930    -1.6330    -0.7960 cd         1 B6H       0.760200
     21 NAD         -6.6780    -2.8750    -1.2510 nv         1 B6H      -1.030500
     22 CBG         -8.4170    -1.2360    -0.7790 cc         1 B6H      -0.327000
     23 CAY         -9.5190    -2.0010    -1.2050 c          1 B6H       0.638300
     24 OAF         -9.3400    -3.0780    -1.7500 o          1 B6H      -0.550100
     25 CBB        -10.8940    -1.5010    -0.9930 ca         1 B6H      -0.176600
     26 CAK        -11.1770    -0.6720     0.0950 ca         1 B6H      -0.075000
     27 CAI        -12.4580    -0.2070     0.2900 ca         1 B6H      -0.152500
     28 CAJ        -11.9110    -1.8500    -1.8840 ca         1 B6H      -0.075000
     29 CAH        -13.1910    -1.3820    -1.6830 ca         1 B6H      -0.152500
     30 CAZ        -13.4700    -0.5620    -0.5950 ca         1 B6H       0.073600
     31 NAT        -14.7670    -0.0890    -0.3940 ns         1 B6H      -0.482100
     32 CAX        -15.2890    -0.0600     0.8480 c          1 B6H       0.656100
     33 OAE        -14.6060    -0.3700     1.8010 o          1 B6H      -0.587100
     34 CAG        -16.7220     0.3570     1.0530 c3         1 B6H      -0.160400
     35 CAA        -17.0600     0.3040     2.5440 c3         1 B6H      -0.077100
     36 H1          -0.3600    -0.8980     0.4880 h1         1 B6H       0.050450
     37 H2          -0.3600     0.0320    -1.0210 h1         1 B6H       0.050450
     38 H3           1.8900    -0.8860    -0.5080 h1         1 B6H       0.042200
     39 H4           1.8900     0.8860    -0.5080 h1         1 B6H       0.042200
     40 H6           3.8140    -0.9710     0.9150 h1         1 B6H       0.032700
     41 H7           3.8140    -0.1100     2.4600 h1         1 B6H       0.032700
     42 H8           3.9060     0.7950     0.9440 h1         1 B6H       0.032700
     43 H9           1.8910     2.0780     1.6240 h1         1 B6H       0.042200
     44 H10          1.8910     1.1500     3.1340 h1         1 B6H       0.042200
     45 H11         -0.3600     0.2950     2.6220 h1         1 B6H       0.050450
     46 H12         -0.3600     2.0670     2.6210 h1         1 B6H       0.050450
     47 H13         -1.9740     3.0970     1.7830 ha         1 B6H       0.144000
     48 H14         -3.1940     3.8940     3.3350 h1         1 B6H       0.042700
     49 H15         -4.3970     5.1410     2.9770 h1         1 B6H       0.042700
     50 H16         -3.0820     4.8270     1.8360 h1         1 B6H       0.042700
     51 H17         -2.0950    -0.5380    -0.4750 ha         1 B6H       0.142000
     52 H18         -4.5550    -0.4150    -0.5480 ha         1 B6H       0.211000
     53 H19         -6.5210     2.2910     0.8700 hn         1 B6H       0.474800
     54 H20         -6.7950    -3.1190    -2.2140 hn         1 B6H       0.448800
     55 H21         -6.2270    -3.5120    -0.6240 hn         1 B6H       0.448800
     56 H22        -10.3880    -0.3950     0.7850 ha         1 B6H       0.148500
     57 H23        -12.6780     0.4350     1.1350 ha         1 B6H       0.146000
     58 H24        -11.6940    -2.4890    -2.7310 ha         1 B6H       0.148500
     59 H25        -13.9810    -1.6540    -2.3720 ha         1 B6H       0.146000
     60 H26        -15.3480     0.1200    -1.1820 hn         1 B6H       0.322500
     61 H27        -17.3760    -0.3160     0.5110 hc         1 B6H       0.059700
     62 H28        -16.8600     1.3680     0.6880 hc         1 B6H       0.059700
     63 H29        -16.4170     0.9870     3.0850 hc         1 B6H       0.045700
     64 H30        -18.0950     0.5910     2.6900 hc         1 B6H       0.045700
     65 H31        -16.9090    -0.7030     2.9130 hc         1 B6H       0.045700
@<TRIPOS>BOND
     1    34    35 1
     2    34    32 1
     3    31    32 1
     4    31    30 1
     5    32    33 2
     6    30    29 ar
     7    30    27 ar
     8    29    28 ar
     9    27    26 ar
    10    28    25 ar
    11    26    25 ar
    12    25    23 1
    13    24    23 2
    14    23    22 1
    15    22    18 1
    16    22    20 2
    17    21    20 1
    18    18    17 1
    19    20    19 1
    20    19    17 2
    21    17    16 1
    22     2     1 1
    23     2     3 1
    24     1     7 1
    25    11    10 1
    26    11    12 1
    27    10     9 ar
    28    10    15 ar
    29     9     8 ar
    30    16    15 1
    31    15    14 ar
    32     8     7 1
    33     8    13 ar
    34     7     6 1
    35     4     3 1
    36     3     5 1
    37    14    13 ar
    38     5     6 1
    39     1    36 1
    40     1    37 1
    41     2    38 1
    42     2    39 1
    43     4    40 1
    44     4    41 1
    45     4    42 1
    46     5    43 1
    47     5    44 1
    48     6    45 1
    49     6    46 1
    50     9    47 1
    51    12    48 1
    52    12    49 1
    53    12    50 1
    54    13    51 1
    55    14    52 1
    56    16    53 1
    57    21    54 1
    58    21    55 1
    59    26    56 1
    60    27    57 1
    61    28    58 1
    62    29    59 1
    63    31    60 1
    64    34    61 1
    65    34    62 1
    66    35    63 1
    67    35    64 1
    68    35    65 1
@<TRIPOS>SUBSTRUCTURE
     1 B6H         1 TEMP              0 ****  ****    0 ROOT
