@<TRIPOS>MOLECULE
B6H
   65    68     1     0     0
SMALL
bcc


@<TRIPOS>ATOM
      1 CAQ          0.0000     0.0000     0.0000 c3         1 B6H       0.136800
      2 CAO          1.5300     0.0000     0.0000 c3         1 B6H       0.152800
      3 NBH          2.0180     0.0000     1.3860 n3         1 B6H      -0.548600
      4 CAC          3.4840    -0.0770     1.4290 c3         1 B6H       0.189100
      5 CAP          1.5310     1.1810     2.1130 c3         1 B6H       0.152800
      6 CAR          0.0000     1.1810     2.1130 c3         1 B6H       0.136800
      7 NBI         -0.4870     1.1800     0.7270 nh         1 B6H      -0.366000
      8 CBC         -1.8840     1.2540     0.6860 ca         1 B6H       0.050600
      9 CAN         -2.5430     2.3050     1.3110 ca         1 B6H      -0.220000
     10 CBF         -3.9240     2.3760     1.2710 ca         1 B6H       0.141100
     11 OAV         -4.5720     3.4030     1.8820 os         1 B6H      -0.324900
     12 CAB         -3.7620     4.3750     2.5480 c3         1 B6H       0.250700
     13 CAL         -2.6100     0.2790     0.0160 ca         1 B6H      -0.178000
     14 CAM         -3.9900     0.3480    -0.0260 ca         1 B6H      -0.099000
     15 CBD         -4.6520     1.3930     0.6010 ca         1 B6H      -0.083400
     16 NAU         -6.0520     1.4630     0.5590 nu         1 B6H      -0.195300
     17 CBE         -6.7790     0.4070     0.0570 cc         1 B6H       0.563300
     18 SAW         -8.4770     0.4010    -0.1320 ss         1 B6H      -0.298300
     19 NAS         -6.2650    -0.7210    -0.3420 nd         1 B6H      -0.701000
     20 CBA         -7.0930    -1.6330    -0.7960 cd         1 B6H       0.586200
     21 NAD         -6.6780    -2.8750    -1.2510 nv         1 B6H      -0.565500
     22 CBG         -8.4170    -1.2360    -0.7790 cc         1 B6H      -0.308000
     23 CAY         -9.5190    -2.0010    -1.2050 c          1 B6H       0.704300
     24 OAF         -9.3400    -3.0780    -1.7500 o          1 B6H      -0.595100
     25 CBB        -10.8940    -1.5010    -0.9930 ca         1 B6H      -0.179600
     26 CAK        -11.1770    -0.6720     0.0950 ca         1 B6H      -0.048500
     27 CAI        -12.4580    -0.2070     0.2900 ca         1 B6H      -0.126000
     28 CAJ        -11.9110    -1.8500    -1.8840 ca         1 B6H      -0.048500
     29 CAH        -13.1910    -1.3820    -1.6830 ca         1 B6H      -0.126000
     30 CAZ        -13.4700    -0.5620    -0.5950 ca         1 B6H      -0.071400
     31 NAT        -14.7670    -0.0890    -0.3940 ns         1 B6H      -0.042100
     32 CAX        -15.2890    -0.0600     0.8480 c          1 B6H       0.558100
     33 OAE        -14.6060    -0.3700     1.8010 o          1 B6H      -0.627100
     34 CAG        -16.7220     0.3570     1.0530 c3         1 B6H      -0.098400
     35 CAA        -17.0600     0.3040     2.5440 c3         1 B6H       0.021900
     36 H1          -0.3600    -0.8980     0.4880 h1         1 B6H       0.024950
     37 H2          -0.3600     0.0320    -1.0210 h1         1 B6H       0.024950
     38 H3           1.8900    -0.8860    -0.5080 h1         1 B6H       0.014700
     39 H4           1.8900     0.8860    -0.5080 h1         1 B6H       0.014700
     40 H6           3.8140    -0.9710     0.9150 h1         1 B6H       0.000700
     41 H7           3.8140    -0.1100     2.4600 h1         1 B6H       0.000700
     42 H8           3.9060     0.7950     0.9440 h1         1 B6H       0.000700
     43 H9           1.8910     2.0780     1.6240 h1         1 B6H       0.014700
     44 H10          1.8910     1.1500     3.1340 h1         1 B6H       0.014700
     45 H11         -0.3600     0.2950     2.6220 h1         1 B6H       0.024950
     46 H12         -0.3600     2.0670     2.6210 h1         1 B6H       0.024950
     47 H13         -1.9740     3.0970     1.7830 ha         1 B6H       0.132000
     48 H14         -3.1940     3.8940     3.3350 h1         1 B6H      -0.000967
     49 H15         -4.3970     5.1410     2.9770 h1         1 B6H      -0.000967
     50 H16         -3.0820     4.8270     1.8360 h1         1 B6H      -0.000967
     51 H17         -2.0950    -0.5380    -0.4750 ha         1 B6H       0.127000
     52 H18         -4.5550    -0.4150    -0.5480 ha         1 B6H       0.188000
     53 H19         -6.5210     2.2910     0.8700 hn         1 B6H       0.295800
     54 H20         -6.7950    -3.1190    -2.2140 hn         1 B6H       0.282300
     55 H21         -6.2270    -3.5120    -0.6240 hn         1 B6H       0.282300
     56 H22        -10.3880    -0.3950     0.7850 ha         1 B6H       0.126000
     57 H23        -12.6780     0.4350     1.1350 ha         1 B6H       0.121500
     58 H24        -11.6940    -2.4890    -2.7310 ha         1 B6H       0.126000
     59 H25        -13.9810    -1.6540    -2.3720 ha         1 B6H       0.121500
     60 H26        -15.3480     0.1200    -1.1820 hn         1 B6H       0.166500
     61 H27        -17.3760    -0.3160     0.5110 hc         1 B6H       0.025200
     62 H28        -16.8600     1.3680     0.6880 hc         1 B6H       0.025200
     63 H29        -16.4170     0.9870     3.0850 hc         1 B6H       0.010033
     64 H30        -18.0950     0.5910     2.6900 hc         1 B6H       0.010033
     65 H31        -16.9090    -0.7030     2.9130 hc         1 B6H       0.010033
@<TRIPOS>BOND
     1     1     2 1   
     2     1     7 1   
     3     1    36 1   
     4     1    37 1   
     5     2     3 1   
     6     2    38 1   
     7     2    39 1   
     8     3     4 1   
     9     3     5 1   
    10     4    40 1   
    11     4    41 1   
    12     4    42 1   
    13     5     6 1   
    14     5    43 1   
    15     5    44 1   
    16     6     7 1   
    17     6    45 1   
    18     6    46 1   
    19     7     8 1   
    20     8     9 ar  
    21     8    13 ar  
    22     9    10 ar  
    23     9    47 1   
    24    10    11 1   
    25    10    15 ar  
    26    11    12 1   
    27    12    48 1   
    28    12    49 1   
    29    12    50 1   
    30    13    14 ar  
    31    13    51 1   
    32    14    15 ar  
    33    14    52 1   
    34    15    16 1   
    35    16    17 1   
    36    16    53 1   
    37    17    18 1   
    38    17    19 2   
    39    18    22 1   
    40    19    20 1   
    41    20    21 1   
    42    20    22 2   
    43    21    54 1   
    44    21    55 1   
    45    22    23 1   
    46    23    24 2   
    47    23    25 1   
    48    25    26 ar  
    49    25    28 ar  
    50    26    27 ar  
    51    26    56 1   
    52    27    30 ar  
    53    27    57 1   
    54    28    29 ar  
    55    28    58 1   
    56    29    30 ar  
    57    29    59 1   
    58    30    31 1   
    59    31    32 1   
    60    31    60 1   
    61    32    33 2   
    62    32    34 1   
    63    34    35 1   
    64    34    61 1   
    65    34    62 1   
    66    35    63 1   
    67    35    64 1   
    68    35    65 1   
@<TRIPOS>SUBSTRUCTURE
     1 B6H         1 TEMP              0 ****  ****    0 ROOT
