@<TRIPOS>MOLECULE
B6J
   40    43     1     0     0
SMALL
bcc


@<TRIPOS>ATOM
      1 C4           0.0000     0.0000     0.0000 ca         1 B6J      -0.127000
      2 C14         -4.9490     1.6880    -0.4490 ca         1 B6J       0.502900
      3 C5           1.3850     0.0000     0.0000 ca         1 B6J       0.120100
      4 C6           2.0790     0.0000     1.2020 ca         1 B6J      -0.126000
      5 C11         -4.8730    -0.0620     1.2900 ca         1 B6J       0.559000
      6 C8          -2.1750    -0.0000     1.2160 cp         1 B6J       0.297500
      7 C9          -2.8750    -0.8710     2.0850 cq         1 B6J       0.384500
      8 C12         -4.1670     0.8090     0.4210 ca         1 B6J       0.029000
      9 C3          -0.6930     0.0000     1.2090 cp         1 B6J      -0.127500
     10 C1           1.3930    -0.0010     2.4020 ca         1 B6J      -0.082000
     11 C2           0.0120     0.0000     2.4120 ca         1 B6J      -0.105000
     12 O7           2.0640     0.0000    -1.1770 oh         1 B6J      -0.498100
     13 N10         -4.1990    -0.8790     2.1000 nb         1 B6J      -0.529000
     14 N13         -2.8380     0.8130     0.4110 nb         1 B6J      -0.502000
     15 N15         -6.2710     1.6170    -0.3710 nb         1 B6J      -0.749000
     16 C16         -6.8690     0.7760     0.4680 ca         1 B6J       0.787900
     17 N17         -6.2130    -0.0370     1.2720 nb         1 B6J      -0.677000
     18 N18         -8.2490     0.7530     0.4990 nv         1 B6J      -0.626500
     19 C20         -2.1220    -1.7770     2.9820 cq         1 B6J      -0.145500
     20 C21         -1.0390    -2.5070     2.4920 ca         1 B6J      -0.100000
     21 C22         -0.3400    -3.3500     3.3310 ca         1 B6J      -0.087000
     22 C23         -0.7090    -3.4750     4.6570 ca         1 B6J      -0.123000
     23 C24         -1.7860    -2.7520     5.1540 ca         1 B6J       0.118100
     24 C25         -2.4910    -1.8990     4.3220 ca         1 B6J      -0.110000
     25 O26         -2.1450    -2.8790     6.4580 oh         1 B6J      -0.500100
     26 H1          -0.5430    -0.0000    -0.9370 ha         1 B6J       0.120000
     27 H2           3.1630    -0.0000     1.2000 ha         1 B6J       0.115000
     28 H3           1.9400    -0.0010     3.3370 ha         1 B6J       0.108000
     29 H4          -0.5230     0.0000     3.3540 ha         1 B6J       0.124000
     30 H5           2.0360     0.8630    -1.5560 ho         1 B6J       0.403000
     31 H6          -8.7410     1.1960     1.2500 hn         1 B6J       0.281300
     32 H7          -8.7580     0.2980    -0.2330 hn         1 B6J       0.281300
     33 H8          -3.3360     2.6430    -1.3230 hn         1 B6J       0.279300
     34 H9          -4.8840     3.1320    -1.9290 hn         1 B6J       0.279300
     35 H10         -0.7470    -2.4110     1.4530 ha         1 B6J       0.122000
     36 H11          0.5010    -3.9160     2.9490 ha         1 B6J       0.107000
     37 H12         -0.1570    -4.1400     5.3100 ha         1 B6J       0.114000
     38 H13         -3.3310    -1.3350     4.7080 ha         1 B6J       0.127000
     39 H14         -2.8890    -3.4560     6.5250 ho         1 B6J       0.406000
     40 N19         -4.3330     2.5650    -1.3150 nv         1 B6J      -0.452500
@<TRIPOS>BOND
     1     1     3 ar  
     2     1     9 ar  
     3     1    26 1   
     4     2     8 ar  
     5     2    15 ar  
     6     2    40 1   
     7     3     4 ar  
     8     3    12 1   
     9     4    10 ar  
    10     4    27 1   
    11     5     8 ar  
    12     5    13 ar  
    13     5    17 ar  
    14     6     7 2   
    15     6     9 1   
    16     6    14 ar  
    17     7    13 1   
    18     7    19 1   
    19     8    14 ar  
    20     9    11 ar  
    21    10    11 ar  
    22    10    28 1   
    23    11    29 1   
    24    12    30 1   
    25    15    16 ar  
    26    16    17 ar  
    27    16    18 1   
    28    18    31 1   
    29    18    32 1   
    30    19    20 1   
    31    19    24 2   
    32    20    21 ar  
    33    20    35 1   
    34    21    22 ar  
    35    21    36 1   
    36    22    23 ar  
    37    22    37 1   
    38    23    24 ar  
    39    23    25 1   
    40    24    38 1   
    41    25    39 1   
    42    33    40 1   
    43    34    40 1   
@<TRIPOS>SUBSTRUCTURE
     1 B6J         1 TEMP              0 ****  ****    0 ROOT
