@<TRIPOS>MOLECULE
molecule
   40    43     1     0     0
SMALL
bcc


@<TRIPOS>ATOM
      1 C4           0.0000     0.0000     0.0000 ca         1 B6J      -0.136000
      2 C14         -4.9490     1.6880    -0.4490 ca         1 B6J       0.718900
      3 C5           1.3850     0.0000     0.0000 ca         1 B6J       0.098100
      4 C6           2.0790     0.0000     1.2020 ca         1 B6J      -0.138000
      5 C11         -4.8730    -0.0620     1.2900 ca         1 B6J       0.643000
      6 C8          -2.1750    -0.0000     1.2160 cp         1 B6J       0.338500
      7 C9          -2.8750    -0.8710     2.0850 cq         1 B6J       0.428500
      8 C12         -4.1670     0.8090     0.4210 ca         1 B6J       0.066000
      9 C3          -0.6930     0.0000     1.2090 cp         1 B6J      -0.133500
     10 C1           1.3930    -0.0010     2.4020 ca         1 B6J      -0.118000
     11 C2           0.0120     0.0000     2.4120 ca         1 B6J      -0.112000
     12 O7           2.0640     0.0000    -1.1770 oh         1 B6J      -0.519100
     13 N10         -4.1990    -0.8790     2.1000 nb         1 B6J      -0.638000
     14 N13         -2.8380     0.8130     0.4110 nb         1 B6J      -0.620000
     15 N15         -6.2710     1.6170    -0.3710 nb         1 B6J      -0.851000
     16 C16         -6.8690     0.7760     0.4680 ca         1 B6J       1.005900
     17 N17         -6.2130    -0.0370     1.2720 nb         1 B6J      -0.778000
     18 N18         -8.2490     0.7530     0.4990 nv         1 B6J      -1.053500
     19 C20         -2.1220    -1.7770     2.9820 cq         1 B6J      -0.149500
     20 C21         -1.0390    -2.5070     2.4920 ca         1 B6J      -0.106000
     21 C22         -0.3400    -3.3500     3.3310 ca         1 B6J      -0.122000
     22 C23         -0.7090    -3.4750     4.6570 ca         1 B6J      -0.134000
     23 C24         -1.7860    -2.7520     5.1540 ca         1 B6J       0.097100
     24 C25         -2.4910    -1.8990     4.3220 ca         1 B6J      -0.120000
     25 O26         -2.1450    -2.8790     6.4580 oh         1 B6J      -0.520100
     26 H1          -0.5430    -0.0000    -0.9370 ha         1 B6J       0.148000
     27 H2           3.1630    -0.0000     1.2000 ha         1 B6J       0.143000
     28 H3           1.9400    -0.0010     3.3370 ha         1 B6J       0.140000
     29 H4          -0.5230     0.0000     3.3540 ha         1 B6J       0.147000
     30 H5           2.0360     0.8630    -1.5560 ho         1 B6J       0.420000
     31 H6          -8.7410     1.1960     1.2500 hn         1 B6J       0.448800
     32 H7          -8.7580     0.2980    -0.2330 hn         1 B6J       0.448800
     33 H8          -3.3360     2.6430    -1.3230 hn         1 B6J       0.456300
     34 H9          -4.8840     3.1320    -1.9290 hn         1 B6J       0.456300
     35 H10         -0.7470    -2.4110     1.4530 ha         1 B6J       0.146000
     36 H11          0.5010    -3.9160     2.9490 ha         1 B6J       0.139000
     37 H12         -0.1570    -4.1400     5.3100 ha         1 B6J       0.143000
     38 H13         -3.3310    -1.3350     4.7080 ha         1 B6J       0.157000
     39 H14         -2.8890    -3.4560     6.5250 ho         1 B6J       0.423000
     40 N19         -4.3330     2.5650    -1.3150 nv         1 B6J      -0.965500
@<TRIPOS>BOND
     1    40     2 1
     2    15     2 ar
     3    15    16 ar
     4     2     8 ar
     5    18    16 1
     6    16    17 ar
     7    12     3 1
     8     8    14 ar
     9     8     5 ar
    10    14     6 ar
    11    17     5 ar
    12     1     3 ar
    13     1     9 ar
    14     3     4 ar
    15     5    13 ar
    16     6     9 1
    17     6     7 1
    18     9    11 ar
    19    13     7 2
    20     4    10 ar
    21     7    19 1
    22    11    10 ar
    23    19    20 1
    24    19    24 2
    25    20    21 ar
    26    21    22 ar
    27    24    23 ar
    28    22    23 ar
    29    23    25 1
    30     1    26 1
    31     4    27 1
    32    10    28 1
    33    11    29 1
    34    12    30 1
    35    18    31 1
    36    18    32 1
    37    40    33 1
    38    40    34 1
    39    20    35 1
    40    21    36 1
    41    22    37 1
    42    24    38 1
    43    25    39 1
@<TRIPOS>SUBSTRUCTURE
     1 B6J         1 TEMP              0 ****  ****    0 ROOT
