@<TRIPOS>MOLECULE
molecule
   46    47     1     0     0
SMALL
bcc


@<TRIPOS>ATOM
      1 C1           0.0000     0.0000     0.0000 cp         1 B6K      -0.032000
      2 C2           1.3930     0.0000     0.0000 ca         1 B6K      -0.186500
      3 C3           2.0840     0.0000     1.2000 ca         1 B6K       0.148350
      4 O3           3.4450     0.0000     1.2000 os         1 B6K      -0.471750
      5 P3           4.1000    -1.4170     0.8080 p5         1 B6K       1.235400
      6 C4           1.3890     0.0020     2.4040 ca         1 B6K       0.119100
      7 O4           2.0700     0.0030     3.5810 os         1 B6K      -0.466000
      8 P4           2.4590     1.4720     4.1120 p5         1 B6K       1.239900
      9 C5          -0.0020     0.0020     2.4060 ca         1 B6K       0.148350
     10 O5          -0.6800     0.0040     3.5840 os         1 B6K      -0.471750
     11 P5          -1.3370    -1.4150     3.9640 p5         1 B6K       1.235400
     12 C6          -0.6960     0.0060     1.2080 ca         1 B6K      -0.186500
     13 C14         -0.7430    -0.0010    -1.2840 cp         1 B6K      -0.032000
     14 C15         -0.0470    -0.0080    -2.4920 ca         1 B6K      -0.186500
     15 C16         -0.7420    -0.0080    -3.6900 ca         1 B6K       0.148350
     16 O16         -0.0630    -0.0140    -4.8690 os         1 B6K      -0.471750
     17 P16          0.5960    -1.4370    -5.2360 p5         1 B6K       1.235400
     18 C17         -2.1320    -0.0010    -3.6880 ca         1 B6K       0.119100
     19 O17         -2.8130    -0.0020    -4.8660 os         1 B6K      -0.466000
     20 P17         -3.0630     1.4650    -5.4790 p5         1 B6K       1.239900
     21 C18         -2.8280     0.0050    -2.4840 ca         1 B6K       0.148350
     22 O18         -4.1880     0.0110    -2.4840 os         1 B6K      -0.471750
     23 P18         -4.8370     1.2680    -1.7170 p5         1 B6K       1.235400
     24 C19         -2.1360    -0.0000    -1.2850 ca         1 B6K      -0.186500
     25 O31          5.7020    -1.3220     0.9380 o          1 B6K      -0.958000
     26 O32          3.5920    -2.4650     1.7210 o          1 B6K      -0.958000
     27 O33          3.7050    -1.7890    -0.7080 o          1 B6K      -0.958000
     28 O41          1.2360     2.3010     4.2100 o          1 B6K      -0.964000
     29 O42          3.1440     1.3550     5.5650 o          1 B6K      -0.964000
     30 O43          3.4920     2.1570     3.0850 o          1 B6K      -0.964000
     31 O51         -1.9960    -1.3260     5.4300 o          1 B6K      -0.958000
     32 O52         -2.4740    -1.7860     2.8860 o          1 B6K      -0.958000
     33 O53         -0.2900    -2.4610     3.9560 o          1 B6K      -0.958000
     34 O61          1.7310    -1.7980    -4.1520 o          1 B6K      -0.958000
     35 O62         -0.4490    -2.4830    -5.2240 o          1 B6K      -0.958000
     36 O63          1.2600    -1.3570    -6.7010 o          1 B6K      -0.958000
     37 O71         -3.7110     1.3300    -6.9470 o          1 B6K      -0.964000
     38 O72         -4.0670     2.2820    -4.5220 o          1 B6K      -0.964000
     39 O73         -1.7740     2.1870    -5.5730 o          1 B6K      -0.964000
     40 O81         -4.5090     1.1640    -0.1440 o          1 B6K      -0.958000
     41 O82         -4.2700     2.5240    -2.2580 o          1 B6K      -0.958000
     42 O83         -6.4330     1.2630    -1.9340 o          1 B6K      -0.958000
     43 H2           1.9350    -0.0050    -0.9380 ha         1 B6K       0.164250
     44 H6          -1.7800     0.0060     1.2090 ha         1 B6K       0.164250
     45 H15          1.0350     0.0520    -2.4930 ha         1 B6K       0.164250
     46 H19         -2.6790     0.0040    -0.3470 ha         1 B6K       0.164250
@<TRIPOS>BOND
     1     2     1 ar
     2     1    13 1
     3     1    12 ar
     4     3     2 ar
     5     2    43 1
     6     4     3 1
     7     3     6 ar
     8     5     4 1
     9    26     5 1
    10     5    27 1
    11     5    25 1
    12     7     6 1
    13     6     9 ar
    14     7     8 1
    15    28     8 1
    16     8    30 1
    17     8    29 1
    18     9    12 ar
    19     9    10 1
    20    10    11 1
    21    33    11 1
    22    11    31 1
    23    11    32 1
    24    12    44 1
    25    24    13 ar
    26    13    14 ar
    27    14    15 ar
    28    14    45 1
    29    18    15 ar
    30    15    16 1
    31    16    17 1
    32    35    17 1
    33    17    36 1
    34    17    34 1
    35    21    18 ar
    36    18    19 1
    37    19    20 1
    38    39    20 1
    39    20    37 1
    40    20    38 1
    41    22    21 1
    42    24    21 ar
    43    23    22 1
    44    41    23 1
    45    40    23 1
    46    23    42 1
    47    24    46 1
@<TRIPOS>SUBSTRUCTURE
     1 B6K         1 TEMP              0 ****  ****    0 ROOT
