@<TRIPOS>MOLECULE
molecule
   43    47     1     0     0
SMALL
bcc


@<TRIPOS>ATOM
      1 FBC          0.0000     0.0000     0.0000 f          1 B6N      -0.212633
      2 CBB          1.3990     0.0000     0.0000 c3         1 B6N       0.676200
      3 FBD          1.8650     0.0000     1.3190 f          1 B6N      -0.212633
      4 FBE          1.8650    -1.1430    -0.6580 f          1 B6N      -0.212633
      5 CAD          1.9010     1.2300    -0.7110 ca         1 B6N      -0.149300
      6 CAC          2.6910     1.1030    -1.8370 ca         1 B6N      -0.136000
      7 CAB          3.1530     2.2320    -2.4910 ca         1 B6N       0.145900
      8 FAA          3.9260     2.1050    -3.5920 f          1 B6N      -0.118900
      9 CAG          2.8240     3.4910    -2.0180 ca         1 B6N      -0.136000
     10 CAF          2.0350     3.6230    -0.8930 ca         1 B6N      -0.093000
     11 CAE          1.5660     2.4910    -0.2380 ca         1 B6N       0.073600
     12 NAH          0.7610     2.6220     0.9010 n          1 B6N      -0.246200
     13 CAV         -0.5970     2.7170     0.7660 ca         1 B6N       0.135600
     14 CAU         -1.2240     2.6870    -0.5020 ca         1 B6N      -0.171300
     15 CAT         -0.4790     2.5590    -1.6790 ca         1 B6N      -0.142000
     16 CAI          1.3290     2.6490     2.1220 c          1 B6N       0.697700
     17 OAJ          2.5410     2.5590     2.2250 o          1 B6N      -0.617500
     18 CAK          0.5410     2.7790     3.2830 cc         1 B6N      -0.245200
     19 CAL         -0.8100     2.8820     3.1850 cd         1 B6N      -0.023200
     20 CAM         -1.4100     2.8490     1.9010 ca         1 B6N      -0.268100
     21 CAN         -2.8060     2.9460     1.7420 ca         1 B6N       0.480200
     22 NAO         -3.3570     2.9150     0.5570 nb         1 B6N      -0.701000
     23 CAP         -2.6350     2.7910    -0.5670 ca         1 B6N       0.445600
     24 CAQ         -3.2670     2.7630    -1.8200 ca         1 B6N      -0.166300
     25 CAR         -2.5290     2.6360    -2.9560 ca         1 B6N      -0.103000
     26 CAS         -1.1330     2.5350    -2.8990 ca         1 B6N       0.012000
     27 CAW         -0.3500     2.3980    -4.1540 cd         1 B6N      -0.271300
     28 CAX         -0.6220     3.0070    -5.3440 cc         1 B6N      -0.098300
     29 NAY          0.3240     2.6230    -6.2250 na         1 B6N      -0.039600
     30 NAZ          1.2060     1.7550    -5.5680 nc         1 B6N      -0.500800
     31 CBA          0.8120     1.6220    -4.3290 cd         1 B6N       0.338200
     32 H1           2.9810     0.1190    -2.1860 ha         1 B6N       0.176000
     33 H2           3.1880     4.3740    -2.5300 ha         1 B6N       0.162000
     34 H3           1.7760     4.6080    -0.5240 ha         1 B6N       0.162000
     35 H4           0.6010     2.4800    -1.6370 ha         1 B6N       0.165000
     36 H5           1.0140     2.7990     4.2580 ha         1 B6N       0.170000
     37 H6          -1.4200     2.9820     4.0750 ha         1 B6N       0.144000
     38 H7          -3.4350     3.0480     2.6180 h4         1 B6N       0.030100
     39 H8          -4.3460     2.8400    -1.8830 ha         1 B6N       0.153000
     40 H9          -3.0280     2.6160    -3.9180 ha         1 B6N       0.135000
     41 H10         -1.4490     3.6770    -5.5450 h4         1 B6N       0.175000
     42 H11          0.3840     2.9070    -7.1830 hn         1 B6N       0.333700
     43 H12          1.2920     1.0140    -3.5720 h4         1 B6N       0.054100
@<TRIPOS>BOND
     1    29    30 1
     2    29    28 1
     3    30    31 2
     4     3     2 1
     5    28    27 2
     6    31    27 1
     7     8     7 1
     8     6     7 ar
     9     6     5 ar
    10    27    26 1
    11     2     4 1
    12     2     5 1
    13     2     1 1
    14     7     9 ar
    15     5    11 ar
    16    26    25 ar
    17    26    15 ar
    18    25    24 ar
    19    15    14 ar
    20     9    10 ar
    21    11    10 ar
    22    11    12 1
    23    24    23 ar
    24    14    23 ar
    25    14    13 ar
    26    23    22 ar
    27    12    13 1
    28    12    16 1
    29    13    20 ar
    30    17    16 2
    31    16    18 1
    32    22    21 ar
    33    20    21 ar
    34    20    19 1
    35    18    19 2
    36     6    32 1
    37     9    33 1
    38    10    34 1
    39    15    35 1
    40    18    36 1
    41    19    37 1
    42    21    38 1
    43    24    39 1
    44    25    40 1
    45    28    41 1
    46    29    42 1
    47    31    43 1
@<TRIPOS>SUBSTRUCTURE
     1 B6N         1 TEMP              0 ****  ****    0 ROOT
