@<TRIPOS>MOLECULE
B6N
   43    47     1     0     0
SMALL
bcc


@<TRIPOS>ATOM
      1 FBC          0.0000     0.0000     0.0000 f          1 B6N      -0.200633
      2 CBB          1.3990     0.0000     0.0000 c3         1 B6N       0.643200
      3 FBD          1.8650     0.0000     1.3190 f          1 B6N      -0.200633
      4 FBE          1.8650    -1.1430    -0.6580 f          1 B6N      -0.200633
      5 CAD          1.9010     1.2300    -0.7110 ca         1 B6N      -0.167300
      6 CAC          2.6910     1.1030    -1.8370 ca         1 B6N      -0.089000
      7 CAB          3.1530     2.2320    -2.4910 ca         1 B6N       0.130900
      8 FAA          3.9260     2.1050    -3.5920 f          1 B6N      -0.110900
      9 CAG          2.8240     3.4910    -2.0180 ca         1 B6N      -0.097000
     10 CAF          2.0350     3.6230    -0.8930 ca         1 B6N      -0.057000
     11 CAE          1.5660     2.4910    -0.2380 ca         1 B6N      -0.050400
     12 NAH          0.7610     2.6220     0.9010 n          1 B6N       0.206800
     13 CAV         -0.5970     2.7170     0.7660 ca         1 B6N      -0.035400
     14 CAU         -1.2240     2.6870    -0.5020 ca         1 B6N      -0.146300
     15 CAT         -0.4790     2.5590    -1.6790 ca         1 B6N      -0.186000
     16 CAI          1.3290     2.6490     2.1220 c          1 B6N       0.591700
     17 OAJ          2.5410     2.5590     2.2250 o          1 B6N      -0.666500
     18 CAK          0.5410     2.7790     3.2830 cc         1 B6N      -0.223200
     19 CAL         -0.8100     2.8820     3.1850 cd         1 B6N       0.009800
     20 CAM         -1.4100     2.8490     1.9010 ca         1 B6N      -0.255100
     21 CAN         -2.8060     2.9460     1.7420 ca         1 B6N       0.459200
     22 NAO         -3.3570     2.9150     0.5570 nb         1 B6N      -0.587000
     23 CAP         -2.6350     2.7910    -0.5670 ca         1 B6N       0.395600
     24 CAQ         -3.2670     2.7630    -1.8200 ca         1 B6N      -0.135300
     25 CAR         -2.5290     2.6360    -2.9560 ca         1 B6N      -0.087000
     26 CAS         -1.1330     2.5350    -2.8990 ca         1 B6N       0.045000
     27 CAW         -0.3500     2.3980    -4.1540 cc         1 B6N      -0.275300
     28 CAX         -0.6220     3.0070    -5.3440 cd         1 B6N      -0.252300
     29 NAY          0.3240     2.6230    -6.2250 na         1 B6N       0.459400
     30 NAZ          1.2060     1.7550    -5.5680 nd         1 B6N      -0.650800
     31 CBA          0.8120     1.6220    -4.3290 cc         1 B6N       0.380200
     32 H1           2.9810     0.1190    -2.1860 ha         1 B6N       0.148000
     33 H2           3.1880     4.3740    -2.5300 ha         1 B6N       0.130000
     34 H3           1.7760     4.6080    -0.5240 ha         1 B6N       0.128000
     35 H4           0.6010     2.4800    -1.6370 ha         1 B6N       0.169000
     36 H5           1.0140     2.7990     4.2580 ha         1 B6N       0.140000
     37 H6          -1.4200     2.9820     4.0750 ha         1 B6N       0.112000
     38 H7          -3.4350     3.0480     2.6180 h4         1 B6N      -0.017900
     39 H8          -4.3460     2.8400    -1.8830 ha         1 B6N       0.120000
     40 H9          -3.0280     2.6160    -3.9180 ha         1 B6N       0.107000
     41 H10         -1.4490     3.6770    -5.5450 h4         1 B6N       0.149000
     42 H11          0.3840     2.9070    -7.1830 hn         1 B6N       0.149700
     43 H12          1.2920     1.0140    -3.5720 h4         1 B6N       0.015100
@<TRIPOS>BOND
     1     1     2 1   
     2     2     3 1   
     3     2     4 1   
     4     2     5 1   
     5     5     6 ar  
     6     5    11 ar  
     7     6     7 ar  
     8     6    32 1   
     9     7     8 1   
    10     7     9 ar  
    11     9    10 ar  
    12     9    33 1   
    13    10    11 ar  
    14    10    34 1   
    15    11    12 1   
    16    12    13 1   
    17    12    16 1   
    18    13    14 ar  
    19    13    20 ar  
    20    14    15 ar  
    21    14    23 ar  
    22    15    26 ar  
    23    15    35 1   
    24    16    17 2   
    25    16    18 1   
    26    18    19 2   
    27    18    36 1   
    28    19    20 1   
    29    19    37 1   
    30    20    21 ar  
    31    21    22 ar  
    32    21    38 1   
    33    22    23 ar  
    34    23    24 ar  
    35    24    25 ar  
    36    24    39 1   
    37    25    26 ar  
    38    25    40 1   
    39    26    27 1   
    40    27    28 2   
    41    27    31 1   
    42    28    29 1   
    43    28    41 1   
    44    29    30 1   
    45    29    42 1   
    46    30    31 2   
    47    31    43 1   
@<TRIPOS>SUBSTRUCTURE
     1 B6N         1 TEMP              0 ****  ****    0 ROOT
