@<TRIPOS>MOLECULE
B6Q
   61    64     1     0     0
SMALL
bcc


@<TRIPOS>ATOM
      1 CAD          0.0000     0.0000     0.0000 c3         1 B6Q       0.135800
      2 CAC          1.5310     0.0000     0.0000 c3         1 B6Q       0.153300
      3 NAB          2.0170     0.0000     1.3860 n3         1 B6Q      -0.549600
      4 CAA          3.4840     0.0750     1.4300 c3         1 B6Q       0.189100
      5 CAG          1.5300    -1.1820     2.1130 c3         1 B6Q       0.153300
      6 CAF         -0.0010    -1.1810     2.1130 c3         1 B6Q       0.135800
      7 NAE         -0.4870    -1.1810     0.7260 nh         1 B6Q      -0.364000
      8 CAH         -1.8840    -1.2530     0.6850 ca         1 B6Q       0.013600
      9 CBG         -2.6110    -0.2800     0.0100 ca         1 B6Q      -0.126500
     10 CBF         -3.9890    -0.3520    -0.0310 ca         1 B6Q      -0.093500
     11 CAI         -2.5450    -2.3000     1.3150 ca         1 B6Q      -0.126500
     12 CAJ         -3.9230    -2.3710     1.2740 ca         1 B6Q      -0.093500
     13 CAK         -4.6490    -1.3950     0.6040 ca         1 B6Q      -0.049400
     14 NAL         -6.0470    -1.4670     0.5640 nu         1 B6Q      -0.230300
     15 CAM         -6.7350    -2.0850     1.5840 cc         1 B6Q       0.565300
     16 SAQ         -8.4180    -2.3790     1.5800 ss         1 B6Q      -0.302300
     17 NAN         -6.1890    -2.5290     2.6800 nd         1 B6Q      -0.698000
     18 CAO         -6.9810    -3.0960     3.5590 cd         1 B6Q       0.586200
     19 NBE         -6.5300    -3.6110     4.7640 nv         1 B6Q      -0.555500
     20 CAP         -8.3060    -3.1410     3.1640 cc         1 B6Q      -0.310000
     21 CAR         -9.3720    -3.6900     3.8980 c          1 B6Q       0.696300
     22 OAS         -9.1900    -4.0810     5.0400 o          1 B6Q      -0.578100
     23 CAT        -10.7160    -3.7940     3.2870 ca         1 B6Q      -0.145600
     24 CAY        -11.8550    -3.7720     4.0920 ca         1 B6Q      -0.047000
     25 CAU        -10.8480    -3.9080     1.9020 ca         1 B6Q      -0.109000
     26 CAV        -12.1020    -4.0000     1.3330 ca         1 B6Q      -0.090000
     27 CAW        -13.2320    -3.9770     2.1310 ca         1 B6Q      -0.121000
     28 CAX        -13.1100    -3.8700     3.5120 ca         1 B6Q      -0.100400
     29 NAZ        -14.2560    -3.8480     4.3150 ns         1 B6Q      -0.039100
     30 CBA        -14.2400    -4.4340     5.5280 c          1 B6Q       0.554100
     31 OBB        -13.2090    -4.9050     5.9600 o          1 B6Q      -0.619100
     32 CBC        -15.5020    -4.5040     6.3490 c3         1 B6Q      -0.097400
     33 CBD        -15.2100    -5.2140     7.6730 c3         1 B6Q       0.021900
     34 H1          -0.3600    -0.0310    -1.0210 h1         1 B6Q       0.024450
     35 H2          -0.3600     0.8970     0.4880 h1         1 B6Q       0.024450
     36 H3           1.8910    -0.8860    -0.5080 h1         1 B6Q       0.015450
     37 H4           1.8910     0.8860    -0.5080 h1         1 B6Q       0.015450
     38 H6           3.8150     0.9690     0.9170 h1         1 B6Q       0.000700
     39 H7           3.9040    -0.7980     0.9440 h1         1 B6Q       0.000700
     40 H8           3.8130     0.1070     2.4610 h1         1 B6Q       0.000700
     41 H9           1.8900    -2.0790     1.6250 h1         1 B6Q       0.015450
     42 H10          1.8900    -1.1500     3.1350 h1         1 B6Q       0.015450
     43 H11         -0.3620    -2.0660     2.6210 h1         1 B6Q       0.024450
     44 H12         -0.3610    -0.2940     2.6210 h1         1 B6Q       0.024450
     45 H13         -2.0960     0.5350    -0.4850 ha         1 B6Q       0.120000
     46 H14         -4.5560     0.4080    -0.5550 ha         1 B6Q       0.124000
     47 H15         -1.9790    -3.0610     1.8380 ha         1 B6Q       0.120000
     48 H16         -4.4380    -3.1870     1.7670 ha         1 B6Q       0.124000
     49 H17         -6.5480    -1.0330    -0.1860 hn         1 B6Q       0.286800
     50 H18         -6.0890    -3.0090     5.4320 hn         1 B6Q       0.281800
     51 H19         -6.6320    -4.5870     4.9610 hn         1 B6Q       0.281800
     52 H20        -11.7590    -3.6880     5.1670 ha         1 B6Q       0.160000
     53 H21         -9.9650    -3.9260     1.2740 ha         1 B6Q       0.133000
     54 H22        -12.2020    -4.0860     0.2580 ha         1 B6Q       0.103000
     55 H23        -14.2130    -4.0510     1.6790 ha         1 B6Q       0.102000
     56 H24        -15.1140    -3.4870     3.9480 hn         1 B6Q       0.164500
     57 H25        -16.2580    -5.0540     5.8030 hc         1 B6Q       0.024200
     58 H26        -15.8590    -3.5010     6.5480 hc         1 B6Q       0.024200
     59 H27        -14.4810    -4.6440     8.2350 hc         1 B6Q       0.010367
     60 H28        -14.8180    -6.2040     7.4730 hc         1 B6Q       0.010367
     61 H29        -16.1250    -5.2970     8.2470 hc         1 B6Q       0.010367
@<TRIPOS>BOND
     1     1     2 1   
     2     1     7 1   
     3     1    34 1   
     4     1    35 1   
     5     2     3 1   
     6     2    36 1   
     7     2    37 1   
     8     3     4 1   
     9     3     5 1   
    10     4    38 1   
    11     4    39 1   
    12     4    40 1   
    13     5     6 1   
    14     5    41 1   
    15     5    42 1   
    16     6     7 1   
    17     6    43 1   
    18     6    44 1   
    19     7     8 1   
    20     8     9 ar  
    21     8    11 ar  
    22     9    10 ar  
    23     9    45 1   
    24    10    13 ar  
    25    10    46 1   
    26    11    12 ar  
    27    11    47 1   
    28    12    13 ar  
    29    12    48 1   
    30    13    14 1   
    31    14    15 1   
    32    14    49 1   
    33    15    16 1   
    34    15    17 2   
    35    16    20 1   
    36    17    18 1   
    37    18    19 1   
    38    18    20 2   
    39    19    50 1   
    40    19    51 1   
    41    20    21 1   
    42    21    22 2   
    43    21    23 1   
    44    23    24 ar  
    45    23    25 ar  
    46    24    28 ar  
    47    24    52 1   
    48    25    26 ar  
    49    25    53 1   
    50    26    27 ar  
    51    26    54 1   
    52    27    28 ar  
    53    27    55 1   
    54    28    29 1   
    55    29    30 1   
    56    29    56 1   
    57    30    31 2   
    58    30    32 1   
    59    32    33 1   
    60    32    57 1   
    61    32    58 1   
    62    33    59 1   
    63    33    60 1   
    64    33    61 1   
@<TRIPOS>SUBSTRUCTURE
     1 B6Q         1 TEMP              0 ****  ****    0 ROOT
