@<TRIPOS>MOLECULE
molecule
   61    64     1     0     0
SMALL
bcc


@<TRIPOS>ATOM
      1 CAD          0.0000     0.0000     0.0000 c3         1 B6Q       0.164300
      2 CAC          1.5310     0.0000     0.0000 c3         1 B6Q       0.160300
      3 NAB          2.0170     0.0000     1.3860 n3         1 B6Q      -0.733600
      4 CAA          3.4840     0.0750     1.4300 c3         1 B6Q       0.153100
      5 CAG          1.5300    -1.1820     2.1130 c3         1 B6Q       0.160300
      6 CAF         -0.0010    -1.1810     2.1130 c3         1 B6Q       0.164300
      7 NAE         -0.4870    -1.1810     0.7260 nh         1 B6Q      -0.597000
      8 CAH         -1.8840    -1.2530     0.6850 ca         1 B6Q       0.088600
      9 CBG         -2.6110    -0.2800     0.0100 ca         1 B6Q      -0.147500
     10 CBF         -3.9890    -0.3520    -0.0310 ca         1 B6Q      -0.124000
     11 CAI         -2.5450    -2.3000     1.3150 ca         1 B6Q      -0.147500
     12 CAJ         -3.9230    -2.3710     1.2740 ca         1 B6Q      -0.124000
     13 CAK         -4.6490    -1.3950     0.6040 ca         1 B6Q       0.121600
     14 NAL         -6.0470    -1.4670     0.5640 nu         1 B6Q      -0.735300
     15 CAM         -6.7350    -2.0850     1.5840 cc         1 B6Q       0.734300
     16 SAQ         -8.4180    -2.3790     1.5800 ss         1 B6Q      -0.201300
     17 NAN         -6.1890    -2.5290     2.6800 nd         1 B6Q      -0.803000
     18 CAO         -6.9810    -3.0960     3.5590 cd         1 B6Q       0.762200
     19 NBE         -6.5300    -3.6110     4.7640 nv         1 B6Q      -1.025500
     20 CAP         -8.3060    -3.1410     3.1640 cc         1 B6Q      -0.328000
     21 CAR         -9.3720    -3.6900     3.8980 c          1 B6Q       0.632300
     22 OAS         -9.1900    -4.0810     5.0400 o          1 B6Q      -0.534100
     23 CAT        -10.7160    -3.7940     3.2870 ca         1 B6Q      -0.142600
     24 CAY        -11.8550    -3.7720     4.0920 ca         1 B6Q      -0.074000
     25 CAU        -10.8480    -3.9080     1.9020 ca         1 B6Q      -0.127000
     26 CAV        -12.1020    -4.0000     1.3330 ca         1 B6Q      -0.118000
     27 CAW        -13.2320    -3.9770     2.1310 ca         1 B6Q      -0.150000
     28 CAX        -13.1100    -3.8700     3.5120 ca         1 B6Q       0.047600
     29 NAZ        -14.2560    -3.8480     4.3150 ns         1 B6Q      -0.480100
     30 CBA        -14.2400    -4.4340     5.5280 c          1 B6Q       0.653100
     31 OBB        -13.2090    -4.9050     5.9600 o          1 B6Q      -0.581100
     32 CBC        -15.5020    -4.5040     6.3490 c3         1 B6Q      -0.159400
     33 CBD        -15.2100    -5.2140     7.6730 c3         1 B6Q      -0.077100
     34 H1          -0.3600    -0.0310    -1.0210 h1         1 B6Q       0.049700
     35 H2          -0.3600     0.8970     0.4880 h1         1 B6Q       0.049700
     36 H3           1.8910    -0.8860    -0.5080 h1         1 B6Q       0.042700
     37 H4           1.8910     0.8860    -0.5080 h1         1 B6Q       0.042700
     38 H6           3.8150     0.9690     0.9170 h1         1 B6Q       0.032700
     39 H7           3.9040    -0.7980     0.9440 h1         1 B6Q       0.032700
     40 H8           3.8130     0.1070     2.4610 h1         1 B6Q       0.032700
     41 H9           1.8900    -2.0790     1.6250 h1         1 B6Q       0.042700
     42 H10          1.8900    -1.1500     3.1350 h1         1 B6Q       0.042700
     43 H11         -0.3620    -2.0660     2.6210 h1         1 B6Q       0.049700
     44 H12         -0.3610    -0.2940     2.6210 h1         1 B6Q       0.049700
     45 H13         -2.0960     0.5350    -0.4850 ha         1 B6Q       0.140000
     46 H14         -4.5560     0.4080    -0.5550 ha         1 B6Q       0.148500
     47 H15         -1.9790    -3.0610     1.8380 ha         1 B6Q       0.140000
     48 H16         -4.4380    -3.1870     1.7670 ha         1 B6Q       0.148500
     49 H17         -6.5480    -1.0330    -0.1860 hn         1 B6Q       0.461800
     50 H18         -6.0890    -3.0090     5.4320 hn         1 B6Q       0.449300
     51 H19         -6.6320    -4.5870     4.9610 hn         1 B6Q       0.449300
     52 H20        -11.7590    -3.6880     5.1670 ha         1 B6Q       0.184000
     53 H21         -9.9650    -3.9260     1.2740 ha         1 B6Q       0.141000
     54 H22        -12.2020    -4.0860     0.2580 ha         1 B6Q       0.132000
     55 H23        -14.2130    -4.0510     1.6790 ha         1 B6Q       0.128000
     56 H24        -15.1140    -3.4870     3.9480 hn         1 B6Q       0.321500
     57 H25        -16.2580    -5.0540     5.8030 hc         1 B6Q       0.059200
     58 H26        -15.8590    -3.5010     6.5480 hc         1 B6Q       0.059200
     59 H27        -14.4810    -4.6440     8.2350 hc         1 B6Q       0.046033
     60 H28        -14.8180    -6.2040     7.4730 hc         1 B6Q       0.046033
     61 H29        -16.1250    -5.2970     8.2470 hc         1 B6Q       0.046033
@<TRIPOS>BOND
     1    26    27 ar
     2    26    25 ar
     3    27    28 ar
     4    25    23 ar
     5    28    29 1
     6    28    24 ar
     7    23    24 ar
     8    23    21 1
     9    29    30 1
    10    30    32 1
    11    30    31 2
    12    32    33 1
    13    21    22 2
    14    21    20 1
    15    20    16 1
    16    20    18 2
    17    16    15 1
    18    18    19 1
    19    18    17 1
    20    10     9 ar
    21    10    13 ar
    22     9     8 ar
    23    15    17 2
    24    15    14 1
    25     1     7 1
    26     1     2 1
    27    14    13 1
    28    13    12 ar
    29     8     7 1
    30     8    11 ar
    31     7     6 1
    32     2     3 1
    33     3     4 1
    34     3     5 1
    35     6     5 1
    36    12    11 ar
    37     1    34 1
    38     1    35 1
    39     2    36 1
    40     2    37 1
    41     4    38 1
    42     4    39 1
    43     4    40 1
    44     5    41 1
    45     5    42 1
    46     6    43 1
    47     6    44 1
    48     9    45 1
    49    10    46 1
    50    11    47 1
    51    12    48 1
    52    14    49 1
    53    19    50 1
    54    19    51 1
    55    24    52 1
    56    25    53 1
    57    26    54 1
    58    27    55 1
    59    29    56 1
    60    32    57 1
    61    32    58 1
    62    33    59 1
    63    33    60 1
    64    33    61 1
@<TRIPOS>SUBSTRUCTURE
     1 B6Q         1 TEMP              0 ****  ****    0 ROOT
