@<TRIPOS>MOLECULE
B6S
   17    15     1     0     0
SMALL
bcc


@<TRIPOS>ATOM
      1 C1          2.0250   -1.1620   -2.0950 c1        1 B6S      0.115000
      2 N1          1.5840   -0.6330   -1.1350 n2        1 B6S     -0.283000
      3 S1         -1.1710    0.7260   -1.2830 sh        1 B6S      0.166000
      4 C2          1.0870   -0.0200    0.0030 c2        1 B6S      0.210000
      5 C3         -0.1230    0.6050    0.0260 c2        1 B6S     -0.360000
      6 C4          4.2690   -1.5460    8.3600 c1        1 B6S      0.151000
      7 C5          4.1750   -1.2580    7.1100 c2        1 B6S     -1.081000
      8 C6          2.5370   -0.0730    2.1800 c1        1 B6S     -0.062000
      9 C7          1.8840   -0.0570    1.1730 c1        1 B6S     -0.272000
     10 S8          4.0720    0.3640    6.3460 s6        1 B6S      2.905000
     11 O9          3.8580    0.0510    4.9820 o         1 B6S     -1.064333
     12 O10         2.9770    0.9960    6.9520 o         1 B6S     -1.064333
     13 H1         -2.1420    1.4060   -0.6980 hs        1 B6S      0.011000
     14 H4         -0.4270    1.0620    0.9810 h4        1 B6S      0.164000
     15 H6          4.1450   -1.9860    6.2870 h4        1 B6S      0.225000
     16 H7          3.1060   -0.0760    3.0970 ha        1 B6S      0.305000
     17 OXT         5.3110    0.9690    6.5970 o         1 B6S     -1.064333
@<TRIPOS>BOND
     1    1    2 1   
     2    2    4 1   
     3    3    5 1   
     4    3   13 1   
     5    4    5 1   
     6    4    9 1   
     7    5   14 1   
     8    6    7 1   
     9    7   10 1   
    10    7   15 1   
    11    8    9 1   
    12    8   16 1   
    13   10   11 1   
    14   10   12 1   
    15   10   17 1   
@<TRIPOS>SUBSTRUCTURE
     1 B6S         1 TEMP              0 ****  ****    0 ROOT
