@<TRIPOS>MOLECULE
molecule
   17    18     1     0     0
SMALL
bcc


@<TRIPOS>ATOM
      1 C1           0.0000     0.0000     0.0000 cc         1 B6S       0.380100
      2 N1           1.2790     0.0000     0.0000 nd         1 B6S      -0.582100
      3 S1          -0.6270     0.0010     1.5870 ss         1 B6S      -0.164100
      4 C2           1.9080     0.0000     1.1910 ca         1 B6S       0.118400
      5 C3           1.0020    -0.0000     2.2580 ca         1 B6S      -0.059100
      6 C4           1.4640     0.0000     3.5710 ca         1 B6S      -0.002000
      7 C5           2.8170    -0.0000     3.8250 ca         1 B6S      -0.236500
      8 C6           3.7210    -0.0000     2.7720 ca         1 B6S      -0.039000
      9 C7           3.2880    -0.0020     1.4810 ca         1 B6S      -0.115000
     10 S8           3.4010    -0.0010     5.4870 s6         1 B6S       1.319100
     11 O9           4.7140     0.5440     5.4500 o          1 B6S      -0.704533
     12 O10          2.3560     0.5440     6.2800 o          1 B6S      -0.704533
     13 H1          -0.6090    -0.0000    -0.8960 h5         1 B6S       0.049800
     14 H4           0.7590     0.0000     4.3940 ha         1 B6S       0.159000
     15 H6           4.7840    -0.0010     2.9800 ha         1 B6S       0.157000
     16 H7           4.0080    -0.0020     0.6720 ha         1 B6S       0.128000
     17 OXT          3.5510    -1.4540     5.9120 o          1 B6S      -0.704533
@<TRIPOS>BOND
     1     1     2 2
     2     1     3 1
     3     1    13 1
     4     2     4 1
     5     3     5 1
     6     4     5 ar
     7     4     9 ar
     8     5     6 ar
     9     6     7 ar
    10     6    14 1
    11     7     8 ar
    12     7    10 1
    13     8     9 ar
    14     8    15 1
    15     9    16 1
    16    10    11 1
    17    10    12 1
    18    10    17 1
@<TRIPOS>SUBSTRUCTURE
     1 B6S         1 TEMP              0 ****  ****    0 ROOT
