@<TRIPOS>MOLECULE
B6T
   35    37     1     0     0
SMALL
bcc


@<TRIPOS>ATOM
      1 N            0.0000     0.0000     0.0000 nc         1 B6T      -0.169600
      2 C            5.6190     1.1520    -1.6270 c3         1 B6T      -0.054100
      3 O            1.8720    -0.0010    -2.3420 oh         1 B6T      -0.439100
      4 C1           4.6380    -0.0020    -1.8440 c3         1 B6T      -0.248400
      5 C10          5.4700    -0.0010     0.9290 ca         1 B6T      -0.188500
      6 C11          6.1520     1.2030     1.0910 ca         1 B6T      -0.062500
      7 C12          7.4980     1.1970     1.3930 ca         1 B6T      -0.102000
      8 C13          8.1710    -0.0040     1.5350 ca         1 B6T      -0.075000
      9 C14          7.5000    -1.2030     1.3760 ca         1 B6T      -0.102000
     10 C15          6.1530    -1.2070     1.0800 ca         1 B6T      -0.062500
     11 C2           5.3990    -1.3280    -1.8300 c3         1 B6T      -0.054100
     12 C3           3.6110    -0.0010    -0.7410 cc         1 B6T      -0.122600
     13 C4           2.2790    -0.0000    -1.0470 cd         1 B6T       0.329100
     14 C5           1.3300     0.0000     0.0000 cd         1 B6T      -0.322300
     15 C6          -0.4460     0.0010     1.2460 cc         1 B6T       0.061600
     16 C7           0.6490     0.0010     2.0970 cd         1 B6T      -0.180800
     17 C8           0.6210     0.0000     3.5290 ch         1 B6T       0.228500
     18 C9           4.0220    -0.0000     0.6040 cc         1 B6T       0.485800
     19 N1           0.6180     0.0050     4.6650 n1         1 B6T      -0.356800
     20 N2           1.7670     0.0000     1.2950 na         1 B6T       0.726200
     21 N3           3.1360     0.0000     1.5780 nd         1 B6T      -0.618800
     22 H1           6.4330     0.8200    -0.9950 hc         1 B6T       0.022033
     23 H2           6.0130     1.4750    -2.5830 hc         1 B6T       0.022033
     24 H3           5.1050     1.9780    -1.1510 hc         1 B6T       0.022033
     25 H4           2.3540     0.6510    -2.8230 ho         1 B6T       0.443000
     26 H5           3.9080    -0.0030    -1.0430 hc         1 B6T       0.040700
     27 H6           5.6260     2.1430     0.9750 ha         1 B6T       0.115000
     28 H7           8.0300     2.1320     1.5190 ha         1 B6T       0.111000
     29 H8           9.2280    -0.0070     1.7730 ha         1 B6T       0.107000
     30 H9           8.0310    -2.1400     1.4880 ha         1 B6T       0.111000
     31 H10          5.6280    -2.1460     0.9550 ha         1 B6T       0.115000
     32 H11          6.2740    -1.2500    -2.4640 hc         1 B6T       0.022033
     33 H12          4.7560    -2.1180    -2.1980 hc         1 B6T       0.022033
     34 H13          5.7080    -1.5570    -0.8170 hc         1 B6T       0.022033
     35 H14         -1.4850     0.0520     1.5500 h4         1 B6T       0.155000
@<TRIPOS>BOND
     1     1    14 2   
     2     1    15 1   
     3     2     4 1   
     4     2    22 1   
     5     2    23 1   
     6     2    24 1   
     7     3    13 1   
     8     3    25 1   
     9     4    11 1   
    10     4    12 1   
    11     4    26 1   
    12     5     6 ar  
    13     5    10 ar  
    14     5    18 1   
    15     6     7 ar  
    16     6    27 1   
    17     7     8 ar  
    18     7    28 1   
    19     8     9 ar  
    20     8    29 1   
    21     9    10 ar  
    22     9    30 1   
    23    10    31 1   
    24    11    32 1   
    25    11    33 1   
    26    11    34 1   
    27    12    13 2   
    28    12    18 1   
    29    13    14 1   
    30    14    20 1   
    31    15    16 2   
    32    15    35 1   
    33    16    17 1   
    34    16    20 1   
    35    17    19 3   
    36    18    21 2   
    37    20    21 1   
@<TRIPOS>SUBSTRUCTURE
     1 B6T         1 TEMP              0 ****  ****    0 ROOT
