@<TRIPOS>MOLECULE
molecule
   35    37     1     0     0
SMALL
bcc


@<TRIPOS>ATOM
      1 N            0.0000     0.0000     0.0000 nc         1 B6T      -0.247600
      2 C            5.6190     1.1520    -1.6270 c3         1 B6T      -0.092600
      3 O            1.8720    -0.0010    -2.3420 oh         1 B6T      -0.447100
      4 C1           4.6380    -0.0020    -1.8440 c3         1 B6T      -0.334400
      5 C10          5.4700    -0.0010     0.9290 ca         1 B6T      -0.170500
      6 C11          6.1520     1.2030     1.0910 ca         1 B6T      -0.082500
      7 C12          7.4980     1.1970     1.3930 ca         1 B6T      -0.133500
      8 C13          8.1710    -0.0040     1.5350 ca         1 B6T      -0.102000
      9 C14          7.5000    -1.2030     1.3760 ca         1 B6T      -0.133500
     10 C15          6.1530    -1.2070     1.0800 ca         1 B6T      -0.082500
     11 C2           5.3990    -1.3280    -1.8300 c3         1 B6T      -0.092600
     12 C3           3.6110    -0.0010    -0.7410 cd         1 B6T      -0.273600
     13 C4           2.2790    -0.0000    -1.0470 cc         1 B6T       0.311100
     14 C5           1.3300     0.0000     0.0000 cd         1 B6T      -0.108300
     15 C6          -0.4460     0.0010     1.2460 cd         1 B6T       0.062600
     16 C7           0.6490     0.0010     2.0970 cc         1 B6T      -0.017800
     17 C8           0.6210     0.0000     3.5290 cg         1 B6T       0.231500
     18 C9           4.0220    -0.0000     0.6040 cd         1 B6T       0.441800
     19 N1           0.6180     0.0050     4.6650 n1         1 B6T      -0.327800
     20 N2           1.7670     0.0000     1.2950 na         1 B6T       0.219200
     21 N3           3.1360     0.0000     1.5780 nc         1 B6T      -0.468800
     22 H1           6.4330     0.8200    -0.9950 hc         1 B6T       0.040033
     23 H2           6.0130     1.4750    -2.5830 hc         1 B6T       0.040033
     24 H3           5.1050     1.9780    -1.1510 hc         1 B6T       0.040033
     25 H4           2.3540     0.6510    -2.8230 ho         1 B6T       0.471000
     26 H5           3.9080    -0.0030    -1.0430 hc         1 B6T       0.230700
     27 H6           5.6260     2.1430     0.9750 ha         1 B6T       0.142500
     28 H7           8.0300     2.1320     1.5190 ha         1 B6T       0.140000
     29 H8           9.2280    -0.0070     1.7730 ha         1 B6T       0.137000
     30 H9           8.0310    -2.1400     1.4880 ha         1 B6T       0.140000
     31 H10          5.6280    -2.1460     0.9550 ha         1 B6T       0.142500
     32 H11          6.2740    -1.2500    -2.4640 hc         1 B6T       0.040033
     33 H12          4.7560    -2.1180    -2.1980 hc         1 B6T       0.040033
     34 H13          5.7080    -1.5570    -0.8170 hc         1 B6T       0.040033
     35 H14         -1.4850     0.0520     1.5500 h4         1 B6T       0.205000
@<TRIPOS>BOND
     1     9    10 ar
     2     9     8 ar
     3    10     5 ar
     4     8     7 ar
     5    19    17 3
     6     5    18 1
     7     5     6 ar
     8     7     6 ar
     9     2     4 1
    10    17    16 1
    11    21    18 2
    12    21    20 1
    13    18    12 1
    14     4    12 1
    15     4    11 1
    16    20    16 1
    17    20    14 1
    18    12    13 2
    19    16    15 2
    20    13    14 1
    21    13     3 1
    22    14     1 2
    23    15     1 1
    24     2    22 1
    25     2    23 1
    26     2    24 1
    27     3    25 1
    28     4    26 1
    29     6    27 1
    30     7    28 1
    31     8    29 1
    32     9    30 1
    33    10    31 1
    34    11    32 1
    35    11    33 1
    36    11    34 1
    37    15    35 1
@<TRIPOS>SUBSTRUCTURE
     1 B6T         1 TEMP              0 ****  ****    0 ROOT
