@<TRIPOS>MOLECULE
B6W
   45    49     1     0     0
SMALL
bcc


@<TRIPOS>ATOM
      1 C16          0.0000     0.0000     0.0000 c2         1 B6W      -0.008000
      2 C15          2.2650    -0.0000    -1.1510 c1         1 B6W      -0.056000
      3 C14          1.4120     0.0000     0.0000 c2         1 B6W      -0.166000
      4 C13          1.8200     0.0000     1.3320 c2         1 B6W      -0.193000
      5 C10         10.0100     2.8040     7.0250 c2         1 B6W       0.201000
      6 C12          4.9530    -0.8590     4.9470 c2         1 B6W      -0.031000
      7 N            6.5890     0.5160     4.4190 na         1 B6W       0.326000
      8 C            0.7840     0.0000     3.4400 c2         1 B6W       0.256000
      9 O           -0.2300     0.0000     4.1180 o          1 B6W      -0.349000
     10 C1           2.0410    -0.0000     4.0600 c2         1 B6W      -0.234000
     11 C11         11.3630     3.4680     7.0440 c3         1 B6W      -0.130000
     12 C2           2.1470    -0.0010     5.5640 c3         1 B6W      -0.353000
     13 C3           1.3970     1.2080     6.1280 c3         1 B6W      -0.057000
     14 C4           1.5290    -1.2870     6.1170 DU         1 B6W      -0.187000
     15 C5           3.1810     0.0010     3.2840 c2         1 B6W       0.024000
     16 C6           4.5130     0.0030     3.9170 c2         1 B6W      -0.212000
     17 C7           5.5620     0.8460     3.6150 c2         1 B6W      -0.220000
     18 C9           8.2120     1.6490     5.8560 DU         1 B6W       0.050000
     19 N1           9.5270     2.2940     5.8750 ns         1 B6W      -0.038000
     20 N2           6.1850    -0.5420     5.2410 n2         1 B6W      -0.202000
     21 N3           3.0640     0.0010     1.9170 na         1 B6W       0.288000
     22 N4           2.9470     0.0180    -2.0590 n1         1 B6W      -0.076000
     23 N5          -0.4130     0.0010     1.2370 n2         1 B6W      -0.181000
     24 N6           0.6940     0.0000     2.0950 n          1 B6W       0.302000
     25 O1           9.6140     2.2170     7.9410 o          1 B6W      -0.337000
     26 Cl          12.4430     2.6590     8.1750 cl         1 B6W       0.044000
     27 H1          -0.7330     0.2190    -0.7670 h4         1 B6W       0.154000
     28 H2           4.2370    -1.4260     5.5300 h4         1 B6W       0.147000
     29 H4          11.3870     4.5500     7.1040 h1         1 B6W       0.069000
     30 H5          11.5280     3.2540     5.9950 h1         1 B6W       0.069000
     31 H6           2.1440    -1.0170     5.9390 DU         1 B6W       0.320000
     32 H7           0.3220     1.0840     6.0730 hc         1 B6W       0.033000
     33 H8           1.4860     2.2870     6.1170 hc         1 B6W       0.033000
     34 H9           1.4760     1.1080     7.2040 hc         1 B6W       0.033000
     35 H10          2.4210    -1.9000     6.0670 ha         1 B6W       0.097000
     36 H11          0.7760    -0.9800     6.8320 ha         1 B6W       0.097000
     37 H12          1.0970    -1.7930     5.2620 ha         1 B6W       0.097000
     38 H13          5.6360     1.6880     2.9380 h4         1 B6W       0.145000
     39 H14          7.6250     2.0660     4.9630 DU         1 B6W       0.119000
     40 H15          8.2790     1.3080     3.4330 h1         1 B6W       0.161000
     41 H16          7.9720     0.6400     6.1680 ha         1 B6W       0.084000
     42 H17          7.4390     2.3090     6.2310 ha         1 B6W       0.084000
     43 H18          9.9940     2.5770     5.0360 hn         1 B6W       0.088000
     44 H3           3.8600    -0.3520     1.4230 hn         1 B6W       0.089000
     45 C8           7.9040     1.1610     4.4390 c3         1 B6W      -0.377000
@<TRIPOS>BOND
     1     1     3 1   
     2     1    23 1   
     3     1    27 1   
     4     2     3 1   
     5     2    22 1   
     6     3     4 1   
     7     4    21 1   
     8     4    24 1   
     9     5    11 1   
    10     5    19 1   
    11     5    25 1   
    12     6    16 1   
    13     6    20 1   
    14     6    28 1   
    15     7    17 1   
    16     7    20 1   
    17     7    45 1   
    18     8     9 1   
    19     8    10 1   
    20     8    24 1   
    21    10    12 1   
    22    10    15 1   
    23    11    26 1   
    24    11    29 1   
    25    11    30 1   
    26    12    13 1   
    27    12    14 1   
    28    12    31 1   
    29    13    32 1   
    30    13    33 1   
    31    13    34 1   
    32    14    31 1   
    33    14    35 1   
    34    14    36 1   
    35    14    37 1   
    36    15    16 1   
    37    15    21 1   
    38    16    17 1   
    39    17    38 1   
    40    18    19 1   
    41    18    39 1   
    42    18    41 1   
    43    18    42 1   
    44    18    45 1   
    45    19    43 1   
    46    21    44 1   
    47    23    24 1   
    48    39    45 1   
    49    40    45 1   
@<TRIPOS>SUBSTRUCTURE
     1 B6W         1 TEMP              0 ****  ****    0 ROOT
