@<TRIPOS>MOLECULE
molecule
   45    47     1     0     0
SMALL
bcc


@<TRIPOS>ATOM
      1 C16          0.0000     0.0000     0.0000 cc         1 B6W       0.399200
      2 C15          2.2650    -0.0000    -1.1510 cg         1 B6W       0.275800
      3 C14          1.4120     0.0000     0.0000 cc         1 B6W      -0.277300
      4 C13          1.8200     0.0000     1.3320 cd         1 B6W       0.196300
      5 C10         10.0100     2.8040     7.0250 c          1 B6W       0.640100
      6 C12          4.9530    -0.8590     4.9470 cd         1 B6W       0.383200
      7 N            6.5890     0.5160     4.4190 na         1 B6W       0.092400
      8 C            0.7840     0.0000     3.4400 c          1 B6W       0.605500
      9 O           -0.2300     0.0000     4.1180 o          1 B6W      -0.586500
     10 C1           2.0410    -0.0000     4.0600 cc         1 B6W      -0.247400
     11 C11         11.3630     3.4680     7.0440 c3         1 B6W      -0.043000
     12 C2           2.1470    -0.0010     5.5640 c3         1 B6W      -0.351500
     13 C3           1.3970     1.2080     6.1280 c3         1 B6W      -0.107600
     14 C4           1.5290    -1.2870     6.1170 c3         1 B6W      -0.107600
     15 C5           3.1810     0.0010     3.2840 cd         1 B6W       0.271800
     16 C6           4.5130     0.0030     3.9170 cd         1 B6W      -0.290100
     17 C7           5.5620     0.8460     3.6150 cc         1 B6W      -0.086300
     18 C9           8.2120     1.6490     5.8560 c3         1 B6W       0.196000
     19 N1           9.5270     2.2940     5.8750 ns         1 B6W      -0.598900
     20 N2           6.1850    -0.5420     5.2410 nc         1 B6W      -0.508800
     21 N3           3.0640     0.0010     1.9170 na         1 B6W      -0.590400
     22 N4           2.9470     0.0180    -2.0590 n1         1 B6W      -0.383800
     23 N5          -0.4130     0.0010     1.2370 nd         1 B6W      -0.474800
     24 N6           0.6940     0.0000     2.0950 n          1 B6W       0.094300
     25 O1           9.6140     2.2170     7.9410 o          1 B6W      -0.531100
     26 Cl          12.4430     2.6590     8.1750 cl         1 B6W      -0.097400
     27 H1          -0.7330     0.2190    -0.7670 h4         1 B6W       0.067100
     28 H2           4.2370    -1.4260     5.5300 h4         1 B6W       0.050100
     29 H4          11.3870     4.5500     7.1040 h1         1 B6W       0.073200
     30 H5          11.5280     3.2540     5.9950 h1         1 B6W       0.073200
     31 H6           2.1440    -1.0170     5.9390 hc         1 B6W       0.333700
     32 H7           0.3220     1.0840     6.0730 hc         1 B6W       0.061700
     33 H8           1.4860     2.2870     6.1170 hc         1 B6W       0.061700
     34 H9           1.4760     1.1080     7.2040 hc         1 B6W       0.061700
     35 H10          2.4210    -1.9000     6.0670 hc         1 B6W       0.061700
     36 H11          0.7760    -0.9800     6.8320 hc         1 B6W       0.061700
     37 H12          1.0970    -1.7930     5.2620 hc         1 B6W       0.061700
     38 H13          5.6360     1.6880     2.9380 h4         1 B6W       0.174000
     39 H14          7.6250     2.0660     4.9630 h1         1 B6W       0.131200
     40 H15          8.2790     1.3080     3.4330 h1         1 B6W       0.131200
     41 H16          7.9720     0.6400     6.1680 h1         1 B6W       0.084200
     42 H17          7.4390     2.3090     6.2310 h1         1 B6W       0.084200
     43 H18          9.9940     2.5770     5.0360 hn         1 B6W       0.306500
     44 H3           3.8600    -0.3520     1.4230 hn         1 B6W       0.468800
     45 C8           7.9040     1.1610     4.4390 c3         1 B6W      -0.220700
@<TRIPOS>BOND
     1    26    11 1
     2    19    18 1
     3    19     5 1
     4    11     5 1
     5    18    45 1
     6     5    25 2
     7    45     7 1
     8     7    20 1
     9     7    17 1
    10    20     6 2
    11    17    16 2
    12     6    16 1
    13    16    15 1
    14    22     2 3
    15    21    15 1
    16    21     4 1
    17     2     3 1
    18    13    12 1
    19    15    10 2
    20     4     3 2
    21     4    24 1
    22     3     1 1
    23    10    12 1
    24    10     8 1
    25    12    14 1
    26    24     8 1
    27    24    23 1
    28     8     9 2
    29     1    23 2
    30     1    27 1
    31     6    28 1
    32    11    29 1
    33    11    30 1
    34    12    31 1
    35    13    32 1
    36    13    33 1
    37    13    34 1
    38    14    35 1
    39    14    36 1
    40    14    37 1
    41    17    38 1
    42    45    39 1
    43    45    40 1
    44    18    41 1
    45    18    42 1
    46    19    43 1
    47    21    44 1
@<TRIPOS>SUBSTRUCTURE
     1 B6W         1 TEMP              0 ****  ****    0 ROOT
