@<TRIPOS>MOLECULE
molecule
   86    87     1     0     0
SMALL
bcc


@<TRIPOS>ATOM
      1 C02          0.0000     0.0000     0.0000 c          1 B6Y       0.752100
      2 C04          2.0790     0.0010     1.2690 c3         1 B6Y       0.057700
      3 C05          2.2260    -1.4360     1.7740 c3         1 B6Y      -0.092400
      4 C06          0.8440    -2.0040     2.1040 c3         1 B6Y      -0.074700
      5 C07          0.9780    -3.4780     2.4900 c3         1 B6Y      -0.085100
      6 C08          0.2380    -1.2230     3.2720 c3         1 B6Y      -0.085100
      7 C09          3.4460     0.6010     1.0610 c          1 B6Y       0.687100
      8 C11          5.5850     1.3910     1.9200 c3         1 B6Y       0.158700
      9 C12          6.3780     0.7070     0.8060 c3         1 B6Y      -0.086400
     10 C13          6.6740    -0.7410     1.2030 c3         1 B6Y      -0.154700
     11 C14          7.4510    -1.4420     0.1110 c          1 B6Y       0.702500
     12 C16          8.4940    -2.0130     2.1070 c3         1 B6Y       0.093000
     13 C17          7.6160    -0.7850     2.4280 c3         1 B6Y      -0.094400
     14 C19          5.3360     2.8530     1.5470 c3         1 B6Y      -0.041100
     15 C23         -2.1190    -0.1030    -1.0930 c3         1 B6Y       0.186800
     16 N03          1.3480     0.0000     0.0000 ns         1 B6Y      -0.542900
     17 N10          4.3010     0.7060     2.0960 ns         1 B6Y      -0.550900
     18 N15          8.4680    -2.1420     0.6440 ns         1 B6Y      -0.598900
     19 O01         -0.6080     0.0000     1.0520 o          1 B6Y      -0.627000
     20 O18          7.1960    -1.3810    -1.0730 o          1 B6Y      -0.633500
     21 O21          3.7760     0.9910    -0.0400 o          1 B6Y      -0.638100
     22 O22         -0.6730     0.0050    -1.1660 os         1 B6Y      -0.437900
     23 S1           4.3340     3.6440     2.8360 s6         1 B6Y       1.251800
     24 H1           1.5350     0.5870     2.0000 h1         1 B6Y       0.136700
     25 H2           2.6920    -2.0430     1.0070 hc         1 B6Y       0.043700
     26 H3           2.8430    -1.4440     2.6650 hc         1 B6Y       0.043700
     27 H4           0.2000    -1.9150     1.2380 hc         1 B6Y       0.062700
     28 H5           1.5970    -3.5650     3.3740 hc         1 B6Y       0.032200
     29 H6           1.4350    -4.0250     1.6740 hc         1 B6Y       0.032200
     30 H7          -0.0040    -3.8880     2.6940 hc         1 B6Y       0.032200
     31 H8           0.7750    -1.4610     4.1830 hc         1 B6Y       0.032200
     32 H9          -0.8040    -1.4960     3.3870 hc         1 B6Y       0.032200
     33 H10          0.3140    -0.1610     3.0750 hc         1 B6Y       0.032200
     34 H11          6.1480     1.3450     2.8450 h1         1 B6Y       0.074700
     35 H12          5.7990     0.7190    -0.1100 hc         1 B6Y       0.081200
     36 H13          7.3110     1.2350     0.6500 hc         1 B6Y       0.081200
     37 H14          5.7560    -1.2760     1.4140 hc         1 B6Y       0.079700
     38 H15          9.5080    -1.8470     2.4490 h1         1 B6Y       0.034700
     39 H16          8.0770    -2.9010     2.5670 h1         1 B6Y       0.034700
     40 H17          8.2170     0.1140     2.4840 hc         1 B6Y       0.064700
     41 H18          7.0530    -0.9420     3.3410 hc         1 B6Y       0.064700
     42 H19          4.8100     2.9000     0.6010 h2         1 B6Y       0.090700
     43 H23          1.8480     0.0330    -0.8660 hn         1 B6Y       0.341500
     44 H24          4.0480     0.3420     2.9930 hn         1 B6Y       0.327500
     45 H25          9.0370    -2.7730     0.1150 hn         1 B6Y       0.323500
     46 O1           4.8750     3.3770     4.1220 o          1 B6Y      -0.703200
     47 O2           3.9790     4.9650     2.4510 o          1 B6Y      -0.703200
     48 O3           3.0180     2.8810     2.8160 o          1 B6Y      -0.703200
     49 C1          -2.6840     1.1150    -0.3560 c3         1 B6Y      -0.108900
     50 C2          -2.2740     2.3910    -1.0970 c3         1 B6Y       0.115000
     51 N1          -2.7000     2.2830    -2.4990 n          1 B6Y      -0.475800
     52 C4          -2.2880     1.1060    -3.2740 c3         1 B6Y       0.115000
     53 C5          -2.6980    -0.1570    -2.5090 c3         1 B6Y      -0.108900
     54 C3          -3.4570     3.2450    -3.0620 c          1 B6Y       0.755100
     55 O4          -3.7920     4.2150    -2.4100 o          1 B6Y      -0.622000
     56 O5          -3.8400     3.1340    -4.3480 os         1 B6Y      -0.441900
     57 C10         -2.4980    -1.3770    -0.3380 c3         1 B6Y      -0.119400
     58 H22         -2.2900     1.1410     0.6520 hc         1 B6Y       0.067450
     59 H27         -3.7650     1.0480    -0.3260 hc         1 B6Y       0.067450
     60 H28         -1.1970     2.5050    -1.0540 h1         1 B6Y       0.069200
     61 H29         -2.7540     3.2470    -0.6380 h1         1 B6Y       0.069200
     62 H30         -2.7770     1.1190    -4.2400 h1         1 B6Y       0.069200
     63 H31         -1.2120     1.1170    -3.4040 h1         1 B6Y       0.069200
     64 H32         -3.7790    -0.2100    -2.4550 hc         1 B6Y       0.067450
     65 H33         -2.3140    -1.0300    -3.0220 hc         1 B6Y       0.067450
     66 C6          -4.6530     4.2080    -4.8890 c3         1 B6Y       0.178800
     67 C7          -3.8800     5.5260    -4.8040 c3         1 B6Y      -0.104767
     68 C8          -4.9890     3.9070    -6.3510 c3         1 B6Y      -0.104767
     69 C9          -5.9480     4.3240    -4.0820 c3         1 B6Y      -0.104767
     70 H34         -2.8240     5.3350    -4.9560 hc         1 B6Y       0.047589
     71 H35         -4.0290     5.9700    -3.8280 hc         1 B6Y       0.047589
     72 H36         -4.2380     6.2040    -5.5690 hc         1 B6Y       0.047589
     73 H37         -4.0750     3.8770    -6.9330 hc         1 B6Y       0.047589
     74 H38         -5.6380     4.6820    -6.7400 hc         1 B6Y       0.047589
     75 H39         -5.4900     2.9490    -6.4170 hc         1 B6Y       0.047589
     76 H40         -6.7010     4.8260    -4.6780 hc         1 B6Y       0.047589
     77 H41         -6.2990     3.3340    -3.8170 hc         1 B6Y       0.047589
     78 H42         -5.7620     4.8950    -3.1800 hc         1 B6Y       0.047589
     79 C15         -1.8890    -2.5890    -1.0450 c3         1 B6Y      -0.095100
     80 H20         -2.1190    -1.3220     0.6760 hc         1 B6Y       0.068200
     81 H43         -3.5770    -1.4760    -0.3150 hc         1 B6Y       0.068200
     82 H44         -2.5490    -2.9110    -1.8420 hc         1 B6Y       0.034367
     83 H45         -1.7610    -3.3960    -0.3340 hc         1 B6Y       0.034367
     84 H46         -0.9260    -2.3190    -1.4610 hc         1 B6Y       0.034367
     85 O20          6.5860     3.5350     1.4310 oh         1 B6Y      -0.606800
     86 H26          6.4680     4.3250     0.9300 ho         1 B6Y       0.402000
@<TRIPOS>BOND
     1     6     4 1
     2     5     4 1
     3     4     3 1
     4     3     2 1
     5    16     2 1
     6    16     1 1
     7    22     1 1
     8    22    15 1
     9     2     7 1
    10     1    19 2
    11     7    21 2
    12     7    17 1
    13    17     8 1
    14    85    14 1
    15    14     8 1
    16     8     9 1
    17     9    10 1
    18    10    13 1
    19    10    11 1
    20    13    12 1
    21    12    18 1
    22    11    20 2
    23    11    18 1
    24    14    23 1
    25     2    24 1
    26     3    25 1
    27     3    26 1
    28     4    27 1
    29     5    28 1
    30     5    29 1
    31     5    30 1
    32     6    31 1
    33     6    32 1
    34     6    33 1
    35     8    34 1
    36     9    35 1
    37     9    36 1
    38    10    37 1
    39    12    38 1
    40    12    39 1
    41    13    40 1
    42    13    41 1
    43    14    42 1
    44    16    43 1
    45    17    44 1
    46    18    45 1
    47    85    86 1
    48    23    46 1
    49    23    47 1
    50    23    48 1
    51    15    49 1
    52    49    50 1
    53    50    51 1
    54    51    52 1
    55    52    53 1
    56    53    15 1
    57    51    54 1
    58    54    55 2
    59    54    56 1
    60    15    57 1
    61    49    58 1
    62    49    59 1
    63    50    60 1
    64    50    61 1
    65    52    62 1
    66    52    63 1
    67    53    64 1
    68    53    65 1
    69    56    66 1
    70    66    67 1
    71    66    68 1
    72    66    69 1
    73    67    70 1
    74    67    71 1
    75    67    72 1
    76    68    73 1
    77    68    74 1
    78    68    75 1
    79    69    76 1
    80    69    77 1
    81    69    78 1
    82    57    79 1
    83    57    80 1
    84    57    81 1
    85    79    82 1
    86    79    83 1
    87    79    84 1
@<TRIPOS>SUBSTRUCTURE
     1 B6Y         1 TEMP              0 ****  ****    0 ROOT
