@<TRIPOS>MOLECULE
B6Z
   55    58     1     0     0
SMALL
bcc


@<TRIPOS>ATOM
      1 CAO          0.0000     0.0000     0.0000 c3         1 B6Z       0.137300
      2 CAM          1.5300     0.0000     0.0000 c3         1 B6Z       0.152800
      3 NBC          2.0180     0.0000     1.3860 n3         1 B6Z      -0.548600
      4 CAB          3.4830    -0.0750     1.4290 c3         1 B6Z       0.189100
      5 CAN          1.5300     1.1810     2.1130 c3         1 B6Z       0.152800
      6 CAP         -0.0010     1.1800     2.1140 c3         1 B6Z       0.137300
      7 NBD         -0.4890     1.1800     0.7270 nh         1 B6Z      -0.366000
      8 CAX         -1.8860     1.2520     0.6860 ca         1 B6Z       0.050600
      9 CAL         -2.5450     1.2580    -0.5360 ca         1 B6Z      -0.219000
     10 CAZ         -3.9270     1.3230    -0.5740 ca         1 B6Z       0.141100
     11 OAS         -4.5760     1.3290    -1.7700 os         1 B6Z      -0.324900
     12 CAA         -3.7670     1.2660    -2.9460 c3         1 B6Z       0.251700
     13 CAJ         -2.6120     1.3110     1.8690 ca         1 B6Z      -0.179000
     14 CAK         -3.9920     1.3820     1.8310 ca         1 B6Z      -0.094000
     15 CAY         -4.6540     1.3830     0.6130 ca         1 B6Z      -0.081400
     16 NAR         -6.0550     1.4500     0.5770 nu         1 B6Z      -0.198300
     17 CBA         -6.7630     1.6820     1.7330 cc         1 B6Z       0.570300
     18 SAT         -8.4620     1.5630     1.8700 ss         1 B6Z      -0.301300
     19 NAQ         -6.2290     2.0180     2.8720 nd         1 B6Z      -0.709000
     20 CAV         -7.0400     2.2060     3.8860 cd         1 B6Z       0.583200
     21 NAC         -6.6040     2.5650     5.1510 nv         1 B6Z      -0.522500
     22 CBB         -8.3720     2.0010     3.5740 cc         1 B6Z      -0.334000
     23 CAU         -9.4600     2.1260     4.4570 c          1 B6Z       0.707300
     24 OAD         -9.2860     2.5660     5.5820 o          1 B6Z      -0.606100
     25 CAW        -10.8170     1.7250     4.0230 ca         1 B6Z      -0.164600
     26 CAH        -11.9390     2.3660     4.5470 ca         1 B6Z      -0.065500
     27 CAF        -13.2010     1.9870     4.1370 ca         1 B6Z      -0.113000
     28 CAE        -13.3540     0.9740     3.2080 ca         1 B6Z      -0.082000
     29 CAG        -12.2450     0.3340     2.6840 ca         1 B6Z      -0.113000
     30 CAI        -10.9780     0.7060     3.0810 ca         1 B6Z      -0.065500
     31 H1          -0.3600     0.0320    -1.0210 h1         1 B6Z       0.024700
     32 H3           1.8900     0.8860    -0.5080 h1         1 B6Z       0.015200
     33 H6           3.8130    -0.1030     2.4610 h1         1 B6Z       0.001033
     34 H9           1.8890     2.0780     1.6250 h1         1 B6Z       0.015200
     35 H11         -0.3610     0.2930     2.6220 h1         1 B6Z       0.024700
     36 H17         -2.0960     1.3100     2.8220 ha         1 B6Z       0.127000
     37 H18         -4.5570     1.4290     2.7550 ha         1 B6Z       0.182000
     38 H19         -6.5380     1.3490    -0.2940 hn         1 B6Z       0.296800
     39 H20         -6.9230     2.0590     5.9530 hn         1 B6Z       0.281300
     40 H21         -5.9610     3.3240     5.2620 hn         1 B6Z       0.281300
     41 H22        -11.8200     3.1590     5.2750 ha         1 B6Z       0.124000
     42 H23        -14.0740     2.4840     4.5440 ha         1 B6Z       0.103500
     43 H24        -14.3470     0.6790     2.8910 ha         1 B6Z       0.100000
     44 H25        -12.3730    -0.4570     1.9550 ha         1 B6Z       0.103500
     45 H26        -10.1100     0.2040     2.6700 ha         1 B6Z       0.124000
     46 H2          -0.3620     2.0660     2.6220 h1         1 B6Z       0.024700
     47 H4           1.8900     1.1490     3.1340 h1         1 B6Z       0.015200
     48 H7           1.8900    -0.8860    -0.5080 h1         1 B6Z       0.015200
     49 H8          -0.3600    -0.8980     0.4880 h1         1 B6Z       0.024700
     50 H5           3.9050     0.7940     0.9380 h1         1 B6Z       0.001033
     51 H10          3.8140    -0.9730     0.9200 h1         1 B6Z       0.001033
     52 H12         -1.9760     1.2700    -1.4580 ha         1 B6Z       0.133000
     53 H13         -3.1940     0.3470    -2.9420 h1         1 B6Z      -0.000967
     54 H14         -4.4030     1.2910    -3.8230 h1         1 B6Z      -0.000967
     55 H15         -3.0910     2.1130    -2.9660 h1         1 B6Z      -0.000967
@<TRIPOS>BOND
     1     1     2 1   
     2     1     7 1   
     3     1    31 1   
     4     1    49 1   
     5     2     3 1   
     6     2    32 1   
     7     2    48 1   
     8     3     4 1   
     9     3     5 1   
    10     4    33 1   
    11     4    50 1   
    12     4    51 1   
    13     5     6 1   
    14     5    34 1   
    15     5    47 1   
    16     6     7 1   
    17     6    35 1   
    18     6    46 1   
    19     7     8 1   
    20     8     9 ar  
    21     8    13 ar  
    22     9    10 ar  
    23     9    52 1   
    24    10    11 1   
    25    10    15 ar  
    26    11    12 1   
    27    12    53 1   
    28    12    54 1   
    29    12    55 1   
    30    13    14 ar  
    31    13    36 1   
    32    14    15 ar  
    33    14    37 1   
    34    15    16 1   
    35    16    17 1   
    36    16    38 1   
    37    17    18 1   
    38    17    19 2   
    39    18    22 1   
    40    19    20 1   
    41    20    21 1   
    42    20    22 2   
    43    21    39 1   
    44    21    40 1   
    45    22    23 1   
    46    23    24 2   
    47    23    25 1   
    48    25    26 ar  
    49    25    30 ar  
    50    26    27 ar  
    51    26    41 1   
    52    27    28 ar  
    53    27    42 1   
    54    28    29 ar  
    55    28    43 1   
    56    29    30 ar  
    57    29    44 1   
    58    30    45 1   
@<TRIPOS>SUBSTRUCTURE
     1 B6Z         1 TEMP              0 ****  ****    0 ROOT
