@<TRIPOS>MOLECULE
molecule
   55    58     1     0     0
SMALL
bcc


@<TRIPOS>ATOM
      1 CAO          0.0000     0.0000     0.0000 c3         1 B6Z       0.166300
      2 CAM          1.5300     0.0000     0.0000 c3         1 B6Z       0.160300
      3 NBC          2.0180     0.0000     1.3860 n3         1 B6Z      -0.733600
      4 CAB          3.4830    -0.0750     1.4290 c3         1 B6Z       0.153100
      5 CAN          1.5300     1.1810     2.1130 c3         1 B6Z       0.160300
      6 CAP         -0.0010     1.1800     2.1140 c3         1 B6Z       0.166300
      7 NBD         -0.4890     1.1800     0.7270 nh         1 B6Z      -0.600000
      8 CAX         -1.8860     1.2520     0.6860 ca         1 B6Z       0.121600
      9 CAL         -2.5450     1.2580    -0.5360 ca         1 B6Z      -0.225000
     10 CAZ         -3.9270     1.3230    -0.5740 ca         1 B6Z       0.120100
     11 OAS         -4.5760     1.3290    -1.7700 os         1 B6Z      -0.345900
     12 CAA         -3.7670     1.2660    -2.9460 c3         1 B6Z       0.132700
     13 CAJ         -2.6120     1.3110     1.8690 ca         1 B6Z      -0.196000
     14 CAK         -3.9920     1.3820     1.8310 ca         1 B6Z      -0.104000
     15 CAY         -4.6540     1.3830     0.6130 ca         1 B6Z       0.097600
     16 NAR         -6.0550     1.4500     0.5770 nu         1 B6Z      -0.716300
     17 CBA         -6.7630     1.6820     1.7330 cc         1 B6Z       0.746300
     18 SAT         -8.4620     1.5630     1.8700 ss         1 B6Z      -0.196300
     19 NAQ         -6.2290     2.0180     2.8720 nd         1 B6Z      -0.820000
     20 CAV         -7.0400     2.2060     3.8860 cd         1 B6Z       0.766200
     21 NAC         -6.6040     2.5650     5.1510 nv         1 B6Z      -1.008500
     22 CBB         -8.3720     2.0010     3.5740 cc         1 B6Z      -0.348000
     23 CAU         -9.4600     2.1260     4.4570 c          1 B6Z       0.638300
     24 OAD         -9.2860     2.5660     5.5820 o          1 B6Z      -0.559100
     25 CAW        -10.8170     1.7250     4.0230 ca         1 B6Z      -0.158600
     26 CAH        -11.9390     2.3660     4.5470 ca         1 B6Z      -0.090500
     27 CAF        -13.2010     1.9870     4.1370 ca         1 B6Z      -0.137500
     28 CAE        -13.3540     0.9740     3.2080 ca         1 B6Z      -0.110000
     29 CAG        -12.2450     0.3340     2.6840 ca         1 B6Z      -0.137500
     30 CAI        -10.9780     0.7060     3.0810 ca         1 B6Z      -0.090500
     31 H1          -0.3600     0.0320    -1.0210 h1         1 B6Z       0.049950
     32 H3           1.8900     0.8860    -0.5080 h1         1 B6Z       0.042450
     33 H6           3.8130    -0.1030     2.4610 h1         1 B6Z       0.033033
     34 H9           1.8890     2.0780     1.6250 h1         1 B6Z       0.042450
     35 H11         -0.3610     0.2930     2.6220 h1         1 B6Z       0.049950
     36 H17         -2.0960     1.3100     2.8220 ha         1 B6Z       0.142000
     37 H18         -4.5570     1.4290     2.7550 ha         1 B6Z       0.206000
     38 H19         -6.5380     1.3490    -0.2940 hn         1 B6Z       0.474800
     39 H20         -6.9230     2.0590     5.9530 hn         1 B6Z       0.450800
     40 H21         -5.9610     3.3240     5.2620 hn         1 B6Z       0.450800
     41 H22        -11.8200     3.1590     5.2750 ha         1 B6Z       0.145000
     42 H23        -14.0740     2.4840     4.5440 ha         1 B6Z       0.132000
     43 H24        -14.3470     0.6790     2.8910 ha         1 B6Z       0.130000
     44 H25        -12.3730    -0.4570     1.9550 ha         1 B6Z       0.132000
     45 H26        -10.1100     0.2040     2.6700 ha         1 B6Z       0.145000
     46 H2          -0.3620     2.0660     2.6220 h1         1 B6Z       0.049950
     47 H4           1.8900     1.1490     3.1340 h1         1 B6Z       0.042450
     48 H7           1.8900    -0.8860    -0.5080 h1         1 B6Z       0.042450
     49 H8          -0.3600    -0.8980     0.4880 h1         1 B6Z       0.049950
     50 H5           3.9050     0.7940     0.9380 h1         1 B6Z       0.033033
     51 H10          3.8140    -0.9730     0.9200 h1         1 B6Z       0.033033
     52 H12         -1.9760     1.2700    -1.4580 ha         1 B6Z       0.145000
     53 H13         -3.1940     0.3470    -2.9420 h1         1 B6Z       0.043033
     54 H14         -4.4030     1.2910    -3.8230 h1         1 B6Z       0.043033
     55 H15         -3.0910     2.1130    -2.9660 h1         1 B6Z       0.043033
@<TRIPOS>BOND
     1    29    28 ar
     2    29    30 ar
     3    28    27 ar
     4    30    25 ar
     5    27    26 ar
     6    25    26 ar
     7    25    23 1
     8    24    23 2
     9    23    22 1
    10    22    18 1
    11    22    20 2
    12    18    17 1
    13    20    21 1
    14    20    19 1
    15    17    19 2
    16    17    16 1
    17     6     5 1
    18     6     7 1
    19    11    10 1
    20    11    12 1
    21    16    15 1
    22    10    15 ar
    23    10     9 ar
    24    15    14 ar
    25     5     3 1
    26     9     8 ar
    27    14    13 ar
    28     8    13 ar
    29     8     7 1
    30     7     1 1
    31     3     2 1
    32     3     4 1
    33     2     1 1
    34     1    31 1
    35     2    32 1
    36     4    33 1
    37     5    34 1
    38     6    35 1
    39    13    36 1
    40    14    37 1
    41    16    38 1
    42    21    39 1
    43    21    40 1
    44    26    41 1
    45    27    42 1
    46    28    43 1
    47    29    44 1
    48    30    45 1
    49     6    46 1
    50     5    47 1
    51     2    48 1
    52     1    49 1
    53     4    50 1
    54     4    51 1
    55     9    52 1
    56    12    53 1
    57    12    54 1
    58    12    55 1
@<TRIPOS>SUBSTRUCTURE
     1 B6Z         1 TEMP              0 ****  ****    0 ROOT
