@<TRIPOS>MOLECULE
B71
   55    55     1     0     0
SMALL
bcc


@<TRIPOS>ATOM
      1 CAA         0.0990    0.0130    0.0550 c3        1 B71     -0.207000
      2 CAL         1.5440   -0.4070    0.1320 c3        1 B71     -0.161000
      3 CAM         2.1570   -0.0600    1.4720 c3        1 B71     -0.156000
      4 CAN         3.6080   -0.4850    1.5430 c3        1 B71     -0.160000
      5 CAO         4.2220   -0.1380    2.8820 c3        1 B71     -0.155000
      6 CAP         5.6730   -0.5630    2.9510 c3        1 B71     -0.162000
      7 CAQ         6.2910   -0.2160    4.2880 c3        1 B71     -0.151000
      8 CAR         7.7420   -0.6430    4.3490 c3        1 B71     -0.165000
      9 CAS         8.3670   -0.2970    5.6820 c3        1 B71     -0.156000
     10 CAT         9.8280   -0.7230    5.6890 c3        1 B71     -0.034000
     11 OAV        10.3560   -0.3180    6.9600 os        1 B71     -0.272000
     12 CAW        11.6580   -0.7520    7.1990 c2        1 B71     -0.049000
     13 CAK        12.5940   -0.9650    6.0140 c3        1 B71      0.224000
     14 CAI        12.0320   -0.9270    8.4910 c2        1 B71     -0.140000
     15 CAH        13.3900   -1.2720    8.7910 c2        1 B71     -0.418000
     16 CAJ        14.2920   -1.3980    7.7510 c2        1 B71      0.064000
     17 NAY        14.0020   -1.1080    6.4650 n3        1 B71     -0.259000
     18 CAU        14.9580   -1.3340    5.3580 c3        1 B71      0.036000
     19 CAX        14.5430   -2.2770    4.3070 c2        1 B71     -1.450000
     20 PBA        13.0470   -2.1410    3.7330 p5        1 B71      2.111000
     21 OAF        12.5830   -0.8300    3.1850 o         1 B71     -0.922500
     22 OAG        12.4270   -3.3630    3.1500 o         1 B71     -0.922500
     23 OAC        12.1770   -2.0420    5.2600 os        1 B71     -0.738000
     24 PAZ        16.5800   -2.0820    3.4420 p3        1 B71      2.561000
     25 OAD        17.2760   -2.9810    4.4180 o         1 B71     -1.223667
     26 OAE        16.9160   -0.6320    3.5900 o         1 B71     -1.223667
     27 OAB        16.4580   -2.5960    2.0480 o         1 B71     -1.223667
     28 HAA1       -0.5020   -0.4960    0.8470 hc        1 B71      0.063333
     29 HAA2        0.0020    1.1170    0.2000 hc        1 B71      0.063333
     30 HAA3       -0.3320   -0.2510   -0.9400 hc        1 B71      0.063333
     31 HAL1        2.1270    0.0960   -0.6850 hc        1 B71      0.078500
     32 HAL2        1.6250   -1.5130   -0.0400 hc        1 B71      0.078500
     33 HAM1        2.0800    1.0460    1.6450 hc        1 B71      0.072500
     34 HAM2        1.5780   -0.5630    2.2910 hc        1 B71      0.072500
     35 HAN1        4.1880    0.0170    0.7240 hc        1 B71      0.082000
     36 HAN2        3.6860   -1.5910    1.3710 hc        1 B71      0.082000
     37 HAO1        4.1460    0.9690    3.0550 hc        1 B71      0.068000
     38 HAO2        3.6430   -0.6390    3.7020 hc        1 B71      0.068000
     39 HAP1        5.7500   -1.6690    2.7790 hc        1 B71      0.086000
     40 HAP2        6.2530   -0.0630    2.1310 hc        1 B71      0.086000
     41 HAQ1        5.7150   -0.7180    5.1100 hc        1 B71      0.061000
     42 HAQ2        6.2150    0.8900    4.4610 hc        1 B71      0.061000
     43 HAR1        7.8220   -1.7480    4.1760 hc        1 B71      0.101000
     44 HAR2        8.3220   -0.1440    3.5270 hc        1 B71      0.101000
     45 HAS1        7.8170   -0.8100    6.5130 hc        1 B71      0.056500
     46 HAS2        8.2950    0.8060    5.8690 hc        1 B71      0.056500
     47 HAT1       10.4040   -0.2210    4.8650 h1        1 B71      0.130500
     48 HAT2        9.9350   -1.8340    5.5710 h1        1 B71      0.130500
     49 HAK        12.5890   -0.0320    5.3570 h2        1 B71      0.100000
     50 HAI        11.3250   -0.7820    9.3180 ha        1 B71      0.072000
     51 HAH        13.6930   -1.4410    9.8250 ha        1 B71      0.080000
     52 HAJ        15.3430   -1.6790    7.9610 h4        1 B71      0.109000
     53 HAU1       15.9370   -1.6610    5.8210 h1        1 B71      0.100500
     54 HAU2       15.1240   -0.3110    4.8990 h1        1 B71      0.100500
     55 HAX        14.8370   -3.3230    4.5040 ha        1 B71      0.131000
@<TRIPOS>BOND
     1    1    2 1   
     2    1   28 1   
     3    1   29 1   
     4    1   30 1   
     5    2    3 1   
     6    2   31 1   
     7    2   32 1   
     8    3    4 1   
     9    3   33 1   
    10    3   34 1   
    11    4    5 1   
    12    4   35 1   
    13    4   36 1   
    14    5    6 1   
    15    5   37 1   
    16    5   38 1   
    17    6    7 1   
    18    6   39 1   
    19    6   40 1   
    20    7    8 1   
    21    7   41 1   
    22    7   42 1   
    23    8    9 1   
    24    8   43 1   
    25    8   44 1   
    26    9   10 1   
    27    9   45 1   
    28    9   46 1   
    29   10   11 1   
    30   10   47 1   
    31   10   48 1   
    32   11   12 1   
    33   12   13 1   
    34   12   14 1   
    35   13   17 1   
    36   13   23 1   
    37   13   49 1   
    38   14   15 1   
    39   14   50 1   
    40   15   16 1   
    41   15   51 1   
    42   16   17 1   
    43   16   52 1   
    44   17   18 1   
    45   18   19 1   
    46   18   53 1   
    47   18   54 1   
    48   19   20 1   
    49   19   55 1   
    50   20   21 1   
    51   20   22 1   
    52   20   23 1   
    53   24   25 1   
    54   24   26 1   
    55   24   27 1   
@<TRIPOS>SUBSTRUCTURE
     1 B71         1 TEMP              0 ****  ****    0 ROOT
