@<TRIPOS>MOLECULE
molecule
   55    55     1     0     0
SMALL
bcc


@<TRIPOS>ATOM
      1 CAA          0.0000     0.0000     0.0000 c3         1 B71      -0.090100
      2 CAL          1.5200     0.0000     0.0000 c3         1 B71      -0.083400
      3 CAM          2.0800     0.0000     1.4210 c3         1 B71      -0.079400
      4 CAN          3.6100    -0.0330     1.4170 c3         1 B71      -0.078400
      5 CAO          4.1670    -0.0720     2.8420 c3         1 B71      -0.078400
      6 CAP          5.6950    -0.1790     2.8960 c3         1 B71      -0.080400
      7 CAQ          6.2450    -0.2930     4.3200 c3         1 B71      -0.074400
      8 CAR          7.7750    -0.3660     4.3160 c3         1 B71      -0.078400
      9 CAS          8.3270    -0.5100     5.7370 c3         1 B71      -0.075400
     10 CAT          9.8470    -0.6180     5.7560 c3         1 B71       0.129400
     11 OAV         10.3080    -0.7300     7.0960 os         1 B71      -0.357900
     12 CAW         11.6620    -0.8410     7.2770 ca         1 B71       0.135100
     13 CAK         12.5090    -0.8400     6.1870 ca         1 B71      -0.110300
     14 CAI         12.1870    -0.9540     8.5540 ca         1 B71      -0.183000
     15 CAH         13.5640    -1.0640     8.7200 ca         1 B71      -0.205000
     16 CAJ         14.3750    -1.0590     7.5940 ca         1 B71      -0.052300
     17 NAY         13.8310    -0.9480     6.3740 na         1 B71       0.081900
     18 CAU         14.7110    -0.9450     5.2090 c3         1 B71       0.024300
     19 CAX         14.9460    -2.3690     4.6760 c3         1 B71      -0.300100
     20 PBA         13.3530    -3.2140     4.2950 p5         1 B71       1.047700
     21 OAF         12.5170    -2.5210     3.2610 o          1 B71      -0.857333
     22 OAG         13.8250    -4.7110     3.9090 o          1 B71      -0.857333
     23 OAC         12.6600    -3.4160     5.7400 o          1 B71      -0.857333
     24 PAZ         16.2330    -2.3260     3.3430 p5         1 B71       1.047700
     25 OAD         17.5690    -1.8750     4.1320 o          1 B71      -0.857333
     26 OAE         15.8630    -1.4690     2.1690 o          1 B71      -0.857333
     27 OAB         16.4900    -3.8840     2.9990 o          1 B71      -0.857333
     28 HAA1        -0.3610     0.8810     0.5170 hc         1 B71       0.026700
     29 HAA2        -0.3610    -0.8880     0.5040 hc         1 B71       0.026700
     30 HAA3        -0.3610     0.0080    -1.0210 hc         1 B71       0.026700
     31 HAL1         1.8740    -0.8820    -0.5200 hc         1 B71       0.039700
     32 HAL2         1.8740     0.8820    -0.5200 hc         1 B71       0.039700
     33 HAM1         1.7080    -0.8700     1.9490 hc         1 B71       0.034200
     34 HAM2         1.7470     0.8940     1.9340 hc         1 B71       0.034200
     35 HAN1         3.9830     0.8510     0.9140 hc         1 B71       0.042700
     36 HAN2         3.9440    -0.9140     0.8810 hc         1 B71       0.042700
     37 HAO1         3.7410    -0.9250     3.3570 hc         1 B71       0.029700
     38 HAO2         3.8640     0.8310     3.3570 hc         1 B71       0.029700
     39 HAP1         6.1200     0.7010     2.4290 hc         1 B71       0.045200
     40 HAP2         6.0010    -1.0540     2.3350 hc         1 B71       0.045200
     41 HAQ1         5.9330     0.5720     4.8920 hc         1 B71       0.028200
     42 HAQ2         5.8480    -1.1880     4.7840 hc         1 B71       0.028200
     43 HAR1         8.0880    -1.2190     3.7260 hc         1 B71       0.057200
     44 HAR2         8.1720     0.5380     3.8710 hc         1 B71       0.057200
     45 HAS1         7.9060    -1.4000     6.1890 hc         1 B71       0.030200
     46 HAS2         8.0290     0.3540     6.3190 hc         1 B71       0.030200
     47 HAT1        10.2760     0.2660     5.3010 h1         1 B71       0.068200
     48 HAT2        10.1520    -1.4950     5.1970 h1         1 B71       0.068200
     49 HAK         12.1070    -0.7520     5.1850 h4         1 B71       0.209000
     50 HAI         11.5300    -0.9560     9.4160 ha         1 B71       0.102000
     51 HAH         13.9940    -1.1540     9.7100 ha         1 B71       0.108000
     52 HAJ         15.4500    -1.1440     7.7020 h4         1 B71       0.169000
     53 HAU1        14.2620    -0.3450     4.4280 h1         1 B71       0.057200
     54 HAU2        15.6640    -0.5100     5.4870 h1         1 B71       0.057200
     55 HAX         15.3870    -2.9270     5.4940 hc         1 B71       0.072700
@<TRIPOS>BOND
     1     1     2 1
     2     1    28 1
     3     1    29 1
     4     1    30 1
     5     2     3 1
     6     2    31 1
     7     2    32 1
     8     3     4 1
     9     3    33 1
    10     3    34 1
    11     4     5 1
    12     4    35 1
    13     4    36 1
    14     5     6 1
    15     5    37 1
    16     5    38 1
    17     6     7 1
    18     6    39 1
    19     6    40 1
    20     7     8 1
    21     7    41 1
    22     7    42 1
    23     8     9 1
    24     8    43 1
    25     8    44 1
    26     9    10 1
    27     9    45 1
    28     9    46 1
    29    10    11 1
    30    10    47 1
    31    10    48 1
    32    11    12 1
    33    12    14 ar
    34    12    13 ar
    35    13    17 1
    36    13    49 1
    37    14    15 ar
    38    14    50 1
    39    15    16 ar
    40    15    51 1
    41    16    17 2
    42    16    52 1
    43    17    18 1
    44    18    19 1
    45    18    53 1
    46    18    54 1
    47    19    20 1
    48    19    24 1
    49    19    55 1
    50    20    21 1
    51    20    22 1
    52    20    23 1
    53    24    26 1
    54    24    27 1
    55    24    25 1
@<TRIPOS>SUBSTRUCTURE
     1 B71         1 TEMP              0 ****  ****    0 ROOT
