@<TRIPOS>MOLECULE
B72
   47    48     1     0     0
SMALL
bcc


@<TRIPOS>ATOM
      1 O1          0.1220    1.9010   -0.2790 o         1 B72     -0.819800
      2 C20         0.2640    0.7900   -0.8520 c         1 B72      0.926600
      3 O2         -0.4270   -0.2420   -0.6470 o         1 B72     -0.819800
      4 C19         1.3400    0.7060   -1.9760 c3        1 B72     -0.011600
      5 O3          2.5630    0.2880   -1.3580 os        1 B72     -0.285900
      6 C1          3.6410    0.1380   -2.1860 ca        1 B72      0.170100
      7 C2          4.8310   -0.2810   -1.5550 ca        1 B72     -0.203000
      8 C3          5.9890   -0.4670   -2.3040 ca        1 B72     -0.040300
      9 C17         7.2270   -0.9070   -1.6130 c3        1 B72     -0.051800
     10 C4          5.9850   -0.2380   -3.6940 ca        1 B72     -0.155300
     11 C5          4.7970    0.1770   -4.3170 ca        1 B72     -0.040300
     12 C6          3.6320    0.3660   -3.5690 ca        1 B72     -0.203000
     13 C18         4.7490    0.4250   -5.7800 c3        1 B72     -0.051800
     14 C7          7.2390   -0.4030   -4.4820 c3        1 B72      0.024200
     15 C8          7.4850   -1.7870   -4.9840 ca        1 B72     -0.095300
     16 C13         8.7880   -2.1660   -5.3250 ca        1 B72     -0.107000
     17 C12         9.0770   -3.4380   -5.8260 ca        1 B72     -0.102300
     18 C14        10.4770   -3.8240   -6.1840 c3        1 B72     -0.016400
     19 C16        11.0180   -2.9390   -7.2920 c3        1 B72     -0.085100
     20 C15        11.3840   -3.7660   -4.9700 c3        1 B72     -0.085100
     21 C11         8.0100   -4.3450   -5.9810 ca        1 B72      0.110100
     22 O4          8.3050   -5.5990   -6.4790 oh        1 B72     -0.509100
     23 C10         6.7000   -3.9810   -5.6420 ca        1 B72     -0.209000
     24 C9          6.4430   -2.7070   -5.1470 ca        1 B72     -0.081000
     25 H119        1.4870    1.7110   -2.4460 h1        1 B72      0.021200
     26 H219        1.0360   -0.0480   -2.7450 h1        1 B72      0.021200
     27 H2          4.8200   -0.4580   -0.4700 ha        1 B72      0.145000
     28 H117        7.9630   -0.0650   -1.5670 hc        1 B72      0.037700
     29 H217        7.0090   -1.2370   -0.5670 hc        1 B72      0.037700
     30 H317        7.7000   -1.7590   -2.1610 hc        1 B72      0.037700
     31 H6          2.7090    0.6930   -4.0690 ha        1 B72      0.145000
     32 H118        5.3330    1.3440   -6.0370 hc        1 B72      0.037700
     33 H218        3.6980    0.5710   -6.1310 hc        1 B72      0.037700
     34 H318        5.1900   -0.4400   -6.3370 hc        1 B72      0.037700
     35 H17         7.2220    0.2880   -5.3720 hc        1 B72      0.046700
     36 H27         8.1160   -0.0840   -3.8520 hc        1 B72      0.046700
     37 H13         9.6110   -1.4450   -5.1960 ha        1 B72      0.129000
     38 H14        10.4710   -4.8880   -6.5620 hc        1 B72      0.067700
     39 H116       10.3670   -3.0070   -8.1960 hc        1 B72      0.032033
     40 H216       12.0500   -3.2630   -7.5690 hc        1 B72      0.032033
     41 H316       11.0570   -1.8730   -6.9630 hc        1 B72      0.032033
     42 H115       11.0000   -4.4390   -4.1660 hc        1 B72      0.032033
     43 H215       11.4380   -2.7270   -4.5650 hc        1 B72      0.032033
     44 H315       12.4150   -4.0920   -5.2470 hc        1 B72      0.032033
     45 HO4         7.4810   -6.1080   -6.4910 ho        1 B72      0.414000
     46 H10         5.8790   -4.7010   -5.7640 ha        1 B72      0.131000
     47 H9          5.4150   -2.4170   -4.8730 ha        1 B72      0.158000
@<TRIPOS>BOND
     1    1    2 1   
     2    2    3 1   
     3    2    4 1   
     4    4    5 1   
     5    4   25 1   
     6    4   26 1   
     7    5    6 1   
     8    6    7 ar  
     9    6   12 ar  
    10    7    8 ar  
    11    7   27 1   
    12    8    9 1   
    13    8   10 ar  
    14    9   28 1   
    15    9   29 1   
    16    9   30 1   
    17   10   11 ar  
    18   10   14 1   
    19   11   12 ar  
    20   11   13 1   
    21   12   31 1   
    22   13   32 1   
    23   13   33 1   
    24   13   34 1   
    25   14   15 1   
    26   14   35 1   
    27   14   36 1   
    28   15   16 ar  
    29   15   24 ar  
    30   16   17 ar  
    31   16   37 1   
    32   17   18 1   
    33   17   21 ar  
    34   18   19 1   
    35   18   20 1   
    36   18   38 1   
    37   19   39 1   
    38   19   40 1   
    39   19   41 1   
    40   20   42 1   
    41   20   43 1   
    42   20   44 1   
    43   21   22 1   
    44   21   23 ar  
    45   22   45 1   
    46   23   24 ar  
    47   23   46 1   
    48   24   47 1   
@<TRIPOS>SUBSTRUCTURE
     1 B72         1 TEMP              0 ****  ****    0 ROOT
