@<TRIPOS>MOLECULE
molecule
   47    48     1     0     0
SMALL
bcc


@<TRIPOS>ATOM
      1 O1           0.0000     0.0000     0.0000 o          1 B72      -0.827300
      2 C20          1.3420     0.0000     0.0000 c          1 B72       0.895600
      3 O2           1.9460     0.0000     1.0460 o          1 B72      -0.827300
      4 C19          2.0950    -0.0010    -1.3050 c3         1 B72       0.018400
      5 O3           3.5010    -0.0000    -1.0450 os         1 B72      -0.285900
      6 C1           4.3280    -0.0010    -2.1220 ca         1 B72       0.175100
      7 C2           5.7040    -0.0010    -1.9410 ca         1 B72      -0.204000
      8 C3           6.5430    -0.0020    -3.0390 ca         1 B72      -0.042300
      9 C17          8.0370    -0.0020    -2.8440 c3         1 B72      -0.049800
     10 C4           6.0130    -0.0010    -4.3160 ca         1 B72      -0.149300
     11 C5           4.6430    -0.0020    -4.4980 ca         1 B72      -0.042300
     12 C6           3.7990    -0.0070    -3.4040 ca         1 B72      -0.204000
     13 C18          4.0680    -0.0020    -5.8920 c3         1 B72      -0.049800
     14 C7           6.9310     0.0040    -5.5100 c3         1 B72       0.018200
     15 C8           7.2630    -1.4140    -5.8970 ca         1 B72      -0.074300
     16 C13          8.3690    -2.0380    -5.3500 ca         1 B72      -0.105000
     17 C12          8.6710    -3.3410    -5.6980 ca         1 B72      -0.092300
     18 C14          9.8760    -4.0200    -5.1020 c3         1 B72      -0.028400
     19 C16         11.1380    -3.2370    -5.4700 c3         1 B72      -0.085100
     20 C15          9.7330    -4.0680    -3.5790 c3         1 B72      -0.085100
     21 C11          7.8640    -4.0220    -6.5970 ca         1 B72       0.102100
     22 O4           8.1580    -5.3040    -6.9410 oh         1 B72      -0.516100
     23 C10          6.7550    -3.3940    -7.1450 ca         1 B72      -0.182000
     24 C9           6.4560    -2.0920    -6.7930 ca         1 B72      -0.109000
     25 H119         1.8330     0.8830    -1.8740 h1         1 B72       0.026700
     26 H219         1.8340    -0.8860    -1.8720 h1         1 B72       0.026700
     27 H2           6.1190     0.0410    -0.9420 ha         1 B72       0.145000
     28 H117         8.2760     0.4390    -1.8840 hc         1 B72       0.037533
     29 H217         8.5050     0.5750    -3.6330 hc         1 B72       0.037533
     30 H317         8.4060    -1.0200    -2.8750 hc         1 B72       0.037533
     31 H6           2.7250    -0.0070    -3.5470 ha         1 B72       0.145000
     32 H118         3.0400     0.3380    -5.8580 hc         1 B72       0.037533
     33 H218         4.1040    -1.0050    -6.2970 hc         1 B72       0.037533
     34 H318         4.6480     0.6630    -6.5210 hc         1 B72       0.037533
     35 H17          6.4420     0.4990    -6.3400 hc         1 B72       0.047200
     36 H27          7.8440     0.5330    -5.2620 hc         1 B72       0.047200
     37 H13          8.9990    -1.5050    -4.6480 ha         1 B72       0.140000
     38 H14          9.9510    -5.0290    -5.4890 hc         1 B72       0.067700
     39 H116        12.0090    -3.8610    -5.3080 hc         1 B72       0.034367
     40 H216        11.2070    -2.3520    -4.8500 hc         1 B72       0.034367
     41 H316        11.0910    -2.9460    -6.5120 hc         1 B72       0.034367
     42 H115        10.2890    -4.9130    -3.1900 hc         1 B72       0.034367
     43 H215        10.1220    -3.1520    -3.1510 hc         1 B72       0.034367
     44 H315         8.6870    -4.1720    -3.3170 hc         1 B72       0.034367
     45 HO4          8.2050    -5.3750    -7.8800 ho         1 B72       0.411000
     46 H10          6.1230    -3.9240    -7.8470 ha         1 B72       0.128000
     47 H9           5.5900    -1.6010    -7.2210 ha         1 B72       0.136000
@<TRIPOS>BOND
     1     2     3 1
     2     2     1 1
     3     4     2 1
     4     4    25 1
     5     4    26 1
     6     5     4 1
     7     6     5 1
     8     7     6 ar
     9     7    27 1
    10     8     7 ar
    11     9     8 1
    12     9    28 1
    13     9    29 1
    14     9    30 1
    15    10    11 ar
    16    10     8 ar
    17    11    12 ar
    18    12     6 ar
    19    12    31 1
    20    13    11 1
    21    13    32 1
    22    13    33 1
    23    13    34 1
    24    14    10 1
    25    14    35 1
    26    14    36 1
    27    15    24 ar
    28    15    14 1
    29    16    15 ar
    30    16    37 1
    31    17    21 ar
    32    17    16 ar
    33    18    17 1
    34    18    20 1
    35    18    38 1
    36    19    18 1
    37    19    39 1
    38    19    40 1
    39    19    41 1
    40    20    42 1
    41    20    43 1
    42    20    44 1
    43    21    23 ar
    44    22    21 1
    45    22    45 1
    46    23    24 ar
    47    23    46 1
    48    24    47 1
@<TRIPOS>SUBSTRUCTURE
     1 B72         1 TEMP              0 ****  ****    0 ROOT
