@<TRIPOS>MOLECULE
molecule
   19    19     1     0     0
SMALL
bcc


@<TRIPOS>ATOM
      1 CB1          0.0000     0.0000     0.0000 c3         1 B74       0.188700
      2 CG           2.1980     0.0000     1.1980 ca         1 B74      -0.106000
      3 CD1          1.5070     0.0000     0.0000 ca         1 B74      -0.084300
      4 CD2          3.5800     0.0070     1.1980 ca         1 B74      -0.086300
      5 CE1          2.1990     0.0000    -1.1970 ca         1 B74      -0.112000
      6 CE2          4.2710     0.0130     0.0000 ca         1 B74      -0.121000
      7 CZ           3.5810     0.0010    -1.1970 ca         1 B74      -0.129000
      8 CB2          4.3340     0.0070     2.5030 c3         1 B74      -0.046800
      9 O1          -0.4770     1.3460    -0.0000 oh         1 B74      -0.603800
     10 HB11        -0.3610    -0.5110     0.8840 h1         1 B74       0.024200
     11 HB12        -0.3610    -0.5110    -0.8840 h1         1 B74       0.024200
     12 HE1          1.6580    -0.0090    -2.1350 ha         1 B74       0.130000
     13 HE2          5.3550     0.0160     0.0010 ha         1 B74       0.129000
     14 HZ           4.1230     0.0030    -2.1350 ha         1 B74       0.130000
     15 HB21         4.1390    -0.9180     3.0330 hc         1 B74       0.043033
     16 HB22         5.3960     0.0930     2.3070 hc         1 B74       0.043033
     17 H1           4.0090     0.8450     3.1070 hc         1 B74       0.043033
     18 H2          -1.4170     1.3470    -0.0700 ho         1 B74       0.400000
     19 HG           1.6570    -0.0050     2.1360 ha         1 B74       0.132000
@<TRIPOS>BOND
     1     6     7 ar
     2     6     4 ar
     3     7     5 ar
     4     8     4 1
     5     4     2 ar
     6     5     3 ar
     7     2     3 ar
     8     3     1 1
     9     1     9 1
    10     1    10 1
    11     1    11 1
    12     2    19 1
    13     5    12 1
    14     6    13 1
    15     7    14 1
    16     8    15 1
    17     8    16 1
    18     8    17 1
    19     9    18 1
@<TRIPOS>SUBSTRUCTURE
     1 B74         1 TEMP              0 ****  ****    0 ROOT
