@<TRIPOS>MOLECULE
molecule
   56    59     1     0     0
SMALL
bcc


@<TRIPOS>ATOM
      1 CAX          0.0000     0.0000     0.0000 ca         1 B75      -0.107000
      2 CBG          1.4040     0.0000     0.0000 ca         1 B75      -0.012000
      3 CAT          2.1370     0.0000     1.1990 ca         1 B75      -0.162000
      4 CAM          3.5320     0.0000     1.1800 ca         1 B75      -0.131000
      5 CAL          4.2130     0.0000    -0.0350 ca         1 B75      -0.158000
      6 CAS          3.5010     0.0000    -1.2340 ca         1 B75      -0.066000
      7 CBF          2.0970     0.0000    -1.2340 ca         1 B75      -0.001000
      8 CAU          1.3640    -0.0000    -2.4330 ca         1 B75      -0.115000
      9 CAR         -0.0310    -0.0000    -2.4130 ca         1 B75      -0.070000
     10 CBE         -0.6880    -0.0000    -1.2000 ca         1 B75      -0.215500
     11 SBK         -2.4570    -0.0010    -1.1790 sy         1 B75       1.055200
     12 OAC         -2.8930     0.5690    -2.4400 o          1 B75      -0.734800
     13 OAD         -2.8860     0.5990     0.0690 o          1 B75      -0.734800
     14 NAZ         -2.8100    -1.6880    -1.1750 nu         1 B75      -0.736500
     15 CBB         -2.2060    -2.5150    -0.1800 ca         1 B75       0.163600
     16 CAW         -1.3790    -3.5730    -0.5590 ca         1 B75      -0.120000
     17 CAO         -2.4410    -2.2630     1.1720 ca         1 B75      -0.191000
     18 CAK         -1.8510    -3.0700     2.1450 ca         1 B75      -0.151000
     19 CAQ         -1.0260    -4.1290     1.7660 ca         1 B75      -0.166000
     20 CBD         -0.7900    -4.3800     0.4140 cp         1 B75       0.020000
     21 CBC          0.0680    -5.4770     0.0210 cp         1 B75      -0.056000
     22 CAV          0.8060    -5.3970    -1.1600 ca         1 B75      -0.036000
     23 CAP          0.1570    -6.6140     0.8230 ca         1 B75      -0.165000
     24 CAJ          0.9820    -7.6720     0.4450 ca         1 B75      -0.183000
     25 CAN          1.7210    -7.5930    -0.7350 ca         1 B75      -0.117000
     26 CBA          1.6230    -6.4570    -1.5240 ca         1 B75      -0.026300
     27 CAY          2.4220    -6.3720    -2.8010 c3         1 B75      -0.016100
     28 CBH          3.8430    -5.7610    -2.6970 c3         1 B75       0.028400
     29 PBI          3.8680    -4.0940    -1.9540 p5         1 B75       0.996700
     30 OAF          3.3310    -4.0030    -0.5570 o          1 B75      -0.789667
     31 OAG          3.0990    -3.1870    -3.0500 o          1 B75      -0.789667
     32 OAA          5.4070    -3.6260    -2.1100 o          1 B75      -0.789667
     33 PBJ          4.7010    -6.1000    -4.3010 p5         1 B75       0.996700
     34 OAH          4.8420    -7.5540    -4.6410 o          1 B75      -0.789667
     35 OAI          3.8490    -5.2230    -5.3580 o          1 B75      -0.789667
     36 OAB          6.0930    -5.2880    -4.1790 o          1 B75      -0.789667
     37 OAE          4.6320    -6.5430    -1.7990 oh         1 B75      -0.659800
     38 HAX         -0.5430     0.0000     0.9370 ha         1 B75       0.116000
     39 HAT          1.6140     0.0000     2.1470 ha         1 B75       0.089000
     40 HAM          4.0860     0.0000     2.1110 ha         1 B75       0.077000
     41 HAL          5.2960     0.0000    -0.0480 ha         1 B75       0.106000
     42 HAS          4.0370     0.0000    -2.1750 ha         1 B75       0.143000
     43 HAU          1.8880    -0.0000    -3.3810 ha         1 B75       0.132000
     44 HAR         -0.5910    -0.0000    -3.3400 ha         1 B75       0.120000
     45 HNAZ        -3.5630    -2.0420    -1.7310 hn         1 B75       0.381800
     46 HAW         -1.1960    -3.7680    -1.6090 ha         1 B75       0.151000
     47 HAO         -3.0820    -1.4400     1.4670 ha         1 B75       0.127000
     48 HAK         -2.0340    -2.8750     3.1940 ha         1 B75       0.081000
     49 HAQ         -0.5680    -4.7560     2.5210 ha         1 B75       0.109000
     50 HAV          0.7400    -4.5170    -1.7870 ha         1 B75       0.179000
     51 HAP         -0.4170    -6.6760     1.7400 ha         1 B75       0.080000
     52 HAJ          1.0510    -8.5550     1.0690 ha         1 B75       0.070000
     53 HAN          2.3640    -8.4120    -1.0340 ha         1 B75       0.124000
     54 HAY1         1.8560    -5.7800    -3.5090 hc         1 B75       0.052700
     55 HAY2         2.5180    -7.3740    -3.2010 hc         1 B75       0.052700
     56 HOAE         5.5230    -6.2340    -1.8130 ho         1 B75       0.418000
@<TRIPOS>BOND
     1     1     2 ar
     2     1    10 ar
     3     1    38 1
     4     2     7 ar
     5     2     3 ar
     6     3     4 ar
     7     3    39 1
     8     4     5 ar
     9     4    40 1
    10     5     6 ar
    11     5    41 1
    12     6     7 ar
    13     6    42 1
    14     7     8 ar
    15     8     9 ar
    16     8    43 1
    17     9    10 ar
    18     9    44 1
    19    10    11 1
    20    11    14 1
    21    11    13 2
    22    11    12 2
    23    14    15 1
    24    14    45 1
    25    15    16 ar
    26    15    17 ar
    27    16    20 ar
    28    16    46 1
    29    17    18 ar
    30    17    47 1
    31    18    19 ar
    32    18    48 1
    33    19    20 ar
    34    19    49 1
    35    20    21 1
    36    21    23 ar
    37    21    22 ar
    38    22    26 ar
    39    22    50 1
    40    23    24 ar
    41    23    51 1
    42    24    25 ar
    43    24    52 1
    44    25    26 ar
    45    25    53 1
    46    26    27 1
    47    27    28 1
    48    27    54 1
    49    27    55 1
    50    28    37 1
    51    28    33 1
    52    28    29 1
    53    29    30 1
    54    29    32 1
    55    29    31 1
    56    33    34 1
    57    33    35 1
    58    33    36 1
    59    37    56 1
@<TRIPOS>SUBSTRUCTURE
     1 B75         1 TEMP              0 ****  ****    0 ROOT
