@<TRIPOS>MOLECULE
B75
   57    62     1     0     0
SMALL
bcc


@<TRIPOS>ATOM
      1 CAX     -1393.8780    0.7410  132.6850 cy        1 B75     -0.177000
      2 CBG     -1393.0170    0.5970  133.8060 cy        1 B75     -0.069000
      3 CAT     -1392.3310    0.7040  134.3750 DU        1 B75     -0.076000
      4 CAM     -1391.5070    0.5390  135.4620 cy        1 B75     -0.246000
      5 CAL     -1391.3290    0.2570  136.0320 c1        1 B75     -0.104000
      6 CAS     -1391.9760    0.1680  135.5010 cv        1 B75      0.000000
      7 CBF     -1392.8330    0.3090  134.3770 cy        1 B75     -0.113000
      8 CAU     -1393.5060    0.2000  133.7980 DU        1 B75     -0.107000
      9 CAR     -1394.3340    0.3770  132.7170 cy        1 B75     -0.225000
     10 CBE     -1394.5470    0.6610  132.1570 c1        1 B75     -0.161000
     11 SBK     -1395.7730    0.8610  130.9060 ss        1 B75     -0.127000
     12 OAC     -1395.2570    0.9460  129.9880 o         1 B75     -0.466000
     13 OAD     -1395.7630    0.5640  130.1240 os        1 B75     -0.053000
     14 NAZ       750.5460-1041.3430  -72.3210 nh        1 B75     -0.315000
     15 CBB       751.0790-1042.5420  -71.8010 ca        1 B75      0.025000
     16 CAW       752.1500-1043.1940  -72.4480 ca        1 B75     -0.180000
     17 CAO       750.5000-1043.1440  -70.6630 ca        1 B75     -0.208000
     18 CAK       750.9790-1044.3700  -70.2110 ca        1 B75     -0.113000
     19 CAQ       752.0330-1045.0080  -70.8540 ca        1 B75     -0.170000
     20 CBD       752.6340-1044.4210  -71.9800 cp        1 B75      0.053000
     21 CBC       753.7600-1045.0680  -72.6460 cq        1 B75     -0.107000
     22 CAV       754.8300-1044.3000  -73.1350 ca        1 B75     -0.136000
     23 CAP       753.7900-1046.4580  -72.8060 ca        1 B75     -0.147000
     24 CAJ       754.8670-1047.0600  -73.4570 ca        1 B75     -0.158000
     25 CAN       755.9270-1046.2970  -73.9390 ca        1 B75     -0.076000
     26 CBA       755.9210-1044.9010  -73.7700 ca        1 B75     -0.007000
     27 CAY       757.0760-1044.0800  -74.2210 c3        1 B75     -0.124000
     28 CBH       757.5240-1044.2400  -75.6970 c2        1 B75     -0.301000
     29 PBI       758.7410-1042.2080  -76.6230 p3        1 B75      2.539000
     30 OAF       759.3730-1041.4960  -75.5210 o         1 B75     -1.074500
     31 OAG       758.9850-1041.8810  -78.0190 o         1 B75     -1.074500
     32 OAA       757.3860-1042.9240  -76.3140 os        1 B75     -0.784000
     33 PBJ       758.9350-1046.0770  -76.3490 p3        1 B75      2.510000
     34 OAH       758.3710-1046.2200  -77.7140 o         1 B75     -1.176667
     35 OAI       760.2220-1045.3510  -76.2230 o         1 B75     -1.176667
     36 OAB       758.5770-1047.0740  -75.3110 o         1 B75     -1.176667
     37 OAE       756.5490-1044.9960  -76.3610 oh        1 B75     -0.389000
     38 HAX     -1393.9970    0.7340  132.2230 hc        1 B75      0.175000
     39 HAT     -1392.4740    0.6960  133.9210 DU        1 B75      0.134000
     40 HAM     -1390.9770    0.3960  135.8990 DU        1 B75      0.119000
     41 HAL     -1390.6650    0.1470  136.9010 ha        1 B75      0.082000
     42 HAS     -1391.8410    0.1660  135.9360 hc        1 B75      0.083000
     43 HAU     -1393.3410    0.2020  134.2280 DU        1 B75      0.112000
     44 HAR     -1394.8420    0.5220  132.2380 DU        1 B75      0.218000
     45 HNAZ      751.1740-1040.8890  -72.9510 hn        1 B75      0.162500
     46 HAW       752.6160-1042.7480  -73.3410 ha        1 B75      0.150000
     47 HAO       749.6680-1042.6550  -70.1380 ha        1 B75      0.110000
     48 HAK       750.5170-1044.8340  -69.3270 ha        1 B75      0.107000
     49 HAQ       752.4110-1045.9710  -70.4810 ha        1 B75      0.132000
     50 HAV       754.8110-1043.2070  -73.0110 ha        1 B75      0.113000
     51 HAP       752.9570-1047.0710  -72.4340 ha        1 B75      0.096000
     52 HAJ       754.8770-1048.1500  -73.5990 ha        1 B75      0.113000
     53 HAN       756.7870-1046.7610  -74.4830 ha        1 B75      0.243000
     54 HAY1      756.8510-1042.9990  -74.0100 hc        1 B75      0.071500
     55 HAY2      757.9630-1044.3620  -73.5910 hc        1 B75      0.071500
     56 HOAE      756.8130-1045.0550  -77.2930 ho        1 B75      0.234000
     57 HAZ2      750.2390-1040.7220  -71.6030 hn        1 B75      0.162500
@<TRIPOS>BOND
     1    1    2 1   
     2    1    8 1   
     3    1   10 1   
     4    1   44 1   
     5    2    3 1   
     6    2    9 1   
     7    2   43 1   
     8    3    4 1   
     9    3    6 1   
    10    3    8 1   
    11    3   43 1   
    12    4    7 1   
    13    4   40 1   
    14    4   42 1   
    15    5   41 1   
    16    6    7 1   
    17    6   40 1   
    18    7    8 1   
    19    7   39 1   
    20    8    9 1   
    21    8   39 1   
    22    9   38 1   
    23    9   44 1   
    24   10   11 1   
    25   11   12 1   
    26   14   15 1   
    27   14   45 1   
    28   14   57 1   
    29   15   16 1   
    30   15   17 1   
    31   16   20 1   
    32   16   46 1   
    33   17   18 1   
    34   17   47 1   
    35   18   19 1   
    36   18   48 1   
    37   19   20 1   
    38   19   49 1   
    39   20   21 1   
    40   21   22 1   
    41   21   23 1   
    42   22   26 1   
    43   22   50 1   
    44   23   24 1   
    45   23   51 1   
    46   24   25 1   
    47   24   52 1   
    48   25   26 1   
    49   25   53 1   
    50   26   27 1   
    51   27   28 1   
    52   27   54 1   
    53   27   55 1   
    54   28   32 1   
    55   28   37 1   
    56   29   30 1   
    57   29   31 1   
    58   29   32 1   
    59   33   34 1   
    60   33   35 1   
    61   33   36 1   
    62   37   56 1   
@<TRIPOS>SUBSTRUCTURE
     1 B75         1 TEMP              0 ****  ****    0 ROOT
