@<TRIPOS>MOLECULE
molecule
   46    48     1     0     0
SMALL
bcc


@<TRIPOS>ATOM
      1 CAN          0.0000     0.0000     0.0000 ca         1 B76      -0.118500
      2 CAI          1.3950     0.0000     0.0000 ca         1 B76      -0.146500
      3 CAH          2.0930     0.0000     1.2080 ca         1 B76      -0.304000
      4 CAJ          1.3960    -0.0010     2.4150 ca         1 B76      -0.146500
      5 CAO          0.0010    -0.0010     2.4160 ca         1 B76      -0.118500
      6 CAX         -0.6970     0.0000     1.2080 cp         1 B76      -0.194000
      7 CAZ         -2.1440    -0.0000     1.2090 cp         1 B76       0.009000
      8 CAT         -2.8420    -1.2070     1.2070 ca         1 B76      -0.124000
      9 CAQ         -2.8400     1.2090     1.2090 ca         1 B76      -0.156000
     10 CAL         -4.2350     1.2100     1.2090 ca         1 B76      -0.192000
     11 CAR         -4.9330     0.0010     1.2070 ca         1 B76      -0.169000
     12 CBA         -4.2370    -1.2060     1.2070 cp         1 B76       0.001000
     13 CAY         -4.9610    -2.4590     1.2040 cp         1 B76      -0.038000
     14 CAS         -4.4070    -3.5880     1.8070 ca         1 B76      -0.206000
     15 CAP         -6.2150    -2.5380     0.5980 ca         1 B76      -0.213000
     16 CAK         -6.9140    -3.7440     0.5950 ca         1 B76      -0.147000
     17 CAM         -6.3590    -4.8730     1.1990 ca         1 B76      -0.126000
     18 CAW         -5.1100    -4.7860     1.8000 ca         1 B76       0.201100
     19 OAV         -4.5640    -5.8960     2.3920 os         1 B76      -0.208900
     20 CAU         -3.1480    -5.9900     2.3980 c3         1 B76       0.160400
     21 CBB         -2.6980    -7.4580     2.4120 c3         1 B76       0.027400
     22 PBC         -3.0770    -8.2260     4.0220 p5         1 B76       1.007200
     23 OAD         -2.7030    -9.7840     3.8010 o          1 B76      -0.823333
     24 OAE         -2.4170    -7.5760     5.2020 o          1 B76      -0.823333
     25 OAA         -4.6920    -8.2390     4.0610 o          1 B76      -0.823333
     26 PBD         -3.0660    -8.2480     0.8100 p5         1 B76       1.007200
     27 OAF         -4.6810    -8.2620     0.7590 o          1 B76      -0.823333
     28 OAG         -2.3960    -7.6150    -0.3730 o          1 B76      -0.823333
     29 OAB         -2.6930    -9.8020     1.0550 o          1 B76      -0.823333
     30 OAC         -1.2660    -7.4280     2.4180 oh         1 B76      -0.657800
     31 HAN         -0.5420     0.0000    -0.9380 ha         1 B76       0.095000
     32 HAI          1.9360     0.0000    -0.9380 ha         1 B76       0.072000
     33 HAH          3.1770    -0.0000     1.2070 ha         1 B76       0.068000
     34 HAJ          1.9380    -0.0010     3.3530 ha         1 B76       0.072000
     35 HAO         -0.5400    -0.0010     3.3550 ha         1 B76       0.095000
     36 HAT         -2.3000    -2.1460     1.2070 ha         1 B76       0.165000
     37 HAQ         -2.2980     2.1460     1.2100 ha         1 B76       0.097000
     38 HAL         -4.7760     2.1480     1.2090 ha         1 B76       0.076000
     39 HAR         -6.0160     0.0020     1.2070 ha         1 B76       0.105000
     40 HAS         -3.4330    -3.5300     2.2790 ha         1 B76       0.151000
     41 HAP         -6.6450    -1.6610     0.1290 ha         1 B76       0.084000
     42 HAK         -7.8880    -3.8050     0.1240 ha         1 B76       0.084000
     43 HAM         -6.8990    -5.8120     1.1990 ha         1 B76       0.174000
     44 HAU1        -2.7550    -5.5060     1.5120 h1         1 B76       0.017700
     45 HAU2        -2.7620    -5.4910     3.2780 h1         1 B76       0.017700
     46 HOAC        -0.9330    -8.3110     2.4230 ho         1 B76       0.420000
@<TRIPOS>BOND
     1     1     2 ar
     2     1     6 ar
     3     1    31 1
     4     2     3 ar
     5     2    32 1
     6     3     4 ar
     7     3    33 1
     8     4     5 ar
     9     4    34 1
    10     5     6 ar
    11     5    35 1
    12     6     7 1
    13     7     8 ar
    14     7     9 ar
    15     8    12 ar
    16     8    36 1
    17     9    10 ar
    18     9    37 1
    19    10    11 ar
    20    10    38 1
    21    11    12 ar
    22    11    39 1
    23    12    13 1
    24    13    15 ar
    25    13    14 ar
    26    14    18 ar
    27    14    40 1
    28    15    16 ar
    29    15    41 1
    30    16    17 ar
    31    16    42 1
    32    17    18 ar
    33    17    43 1
    34    18    19 1
    35    19    20 1
    36    20    21 1
    37    20    44 1
    38    20    45 1
    39    21    22 1
    40    21    30 1
    41    21    26 1
    42    22    24 1
    43    22    25 1
    44    22    23 1
    45    26    28 1
    46    26    29 1
    47    26    27 1
    48    30    46 1
@<TRIPOS>SUBSTRUCTURE
     1 B76         1 TEMP              0 ****  ****    0 ROOT
