@<TRIPOS>MOLECULE
molecule
   32    33     1     0     0
SMALL
bcc


@<TRIPOS>ATOM
      1 C1           0.0000     0.0000     0.0000 c3         1 B77      -0.043800
      2 C2           1.5070     0.0000     0.0000 ca         1 B77      -0.081300
      3 C3           2.1980     0.0000     1.1980 ca         1 B77      -0.188000
      4 C4           3.5830     0.0000     1.1990 ca         1 B77       0.122100
      5 C5           4.2770     0.0000    -0.0070 ca         1 B77       0.111100
      6 C6           3.5790    -0.0010    -1.2040 ca         1 B77      -0.185000
      7 C7           2.1970    -0.0060    -1.1980 ca         1 B77      -0.126000
      8 O8           5.6370     0.0000    -0.0100 os         1 B77      -0.317900
      9 C9           6.2820    -0.0010    -1.2860 c3         1 B77       0.127700
     10 O10          4.2630     0.0010     2.3780 os         1 B77      -0.322900
     11 C11          3.4850     0.0020     3.5760 c3         1 B77       0.093100
     12 C12          4.4030     0.0030     4.7710 ca         1 B77       0.418600
     13 N13          3.8920     0.0050     5.9860 nb         1 B77      -0.696000
     14 C14          4.6570     0.0060     7.0600 ca         1 B77       0.421200
     15 C15          6.0330     0.0060     6.9480 ca         1 B77      -0.254300
     16 C16          6.6080     0.0050     5.6860 ca         1 B77      -0.096000
     17 C17          5.7720    -0.0020     4.5800 ca         1 B77      -0.223300
     18 H1          -0.3610     0.8720     0.5320 hc         1 B77       0.043033
     19 H1A         -0.3610    -0.8960     0.4890 hc         1 B77       0.043033
     20 H1B         -0.3610     0.0240    -1.0210 hc         1 B77       0.043033
     21 H3           1.6550     0.0000     2.1360 ha         1 B77       0.143000
     22 H6           4.1170    -0.0030    -2.1450 ha         1 B77       0.140000
     23 H7           1.6530    -0.0070    -2.1350 ha         1 B77       0.132000
     24 H9           5.9790    -0.8800    -1.8420 h1         1 B77       0.040367
     25 H9A          5.9990     0.8890    -1.8340 h1         1 B77       0.040367
     26 H9B          7.3560    -0.0130    -1.1470 h1         1 B77       0.040367
     27 H11          2.8600    -0.8830     3.6010 h1         1 B77       0.056700
     28 H11A         2.8600     0.8870     3.6000 h1         1 B77       0.056700
     29 H14          4.2000     0.0070     8.0430 h4         1 B77       0.023100
     30 H15          6.6560     0.0090     7.8350 ha         1 B77       0.137000
     31 H16          7.6850     0.0030     5.5670 ha         1 B77       0.139000
     32 H17          6.1860    -0.0030     3.5790 ha         1 B77       0.165000
@<TRIPOS>BOND
     1     1     2 1
     2     2     3 ar
     3     2     7 ar
     4     3     4 ar
     5     4     5 ar
     6     4    10 1
     7     5     6 ar
     8     5     8 1
     9     6     7 ar
    10     8     9 1
    11    10    11 1
    12    11    12 1
    13    12    13 ar
    14    12    17 ar
    15    13    14 ar
    16    14    15 ar
    17    15    16 ar
    18    16    17 ar
    19     1    18 1
    20     1    19 1
    21     1    20 1
    22     3    21 1
    23     6    22 1
    24     7    23 1
    25     9    24 1
    26     9    25 1
    27     9    26 1
    28    11    27 1
    29    11    28 1
    30    14    29 1
    31    15    30 1
    32    16    31 1
    33    17    32 1
@<TRIPOS>SUBSTRUCTURE
     1 B77         1 TEMP              0 ****  ****    0 ROOT
