@<TRIPOS>MOLECULE
B77
   32    33     1     0     0
SMALL
bcc


@<TRIPOS>ATOM
      1 C1         -0.0750    0.0030   -0.1140 c3        1 B77     -0.050800
      2 C2          1.4050    0.0010   -0.0760 ca        1 B77     -0.074300
      3 C3          2.0610   -0.0010    1.1650 ca        1 B77     -0.180000
      4 C4          3.4530   -0.0020    1.2200 ca        1 B77      0.110100
      5 C5          4.2100   -0.0020    0.0160 ca        1 B77      0.097100
      6 C6          3.5490   -0.0010   -1.2110 ca        1 B77     -0.175000
      7 C7          2.1530    0.0010   -1.2520 ca        1 B77     -0.128000
      8 O8          5.5810   -0.0040    0.1800 os        1 B77     -0.308900
      9 C9          6.3480   -0.0050   -1.0180 c3        1 B77      0.110700
     10 O10         4.2050   -0.0050    2.3780 os        1 B77     -0.314900
     11 C11         3.4510    0.0020    3.5980 c3        1 B77      0.077100
     12 C12         4.4400    0.0030    4.7380 ca        1 B77      0.394600
     13 N13         3.9220    0.0100    5.9950 nb        1 B77     -0.671000
     14 C14         4.7880    0.0110    7.0200 ca        1 B77      0.395200
     15 C15         6.1880    0.0060    6.8660 ca        1 B77     -0.246300
     16 C16         6.7070   -0.0000    5.5720 ca        1 B77     -0.097000
     17 C17         5.8270   -0.0020    4.4880 ca        1 B77     -0.214300
     18 H1         -0.4770   -0.9040    0.4040 hc        1 B77      0.044367
     19 H1A        -0.4550    0.0050   -1.1650 hc        1 B77      0.044367
     20 H1B        -0.4750    0.9080    0.4080 hc        1 B77      0.044367
     21 H3          1.4590   -0.0010    2.0850 ha        1 B77      0.142000
     22 H6          4.1170   -0.0010   -2.1520 ha        1 B77      0.139000
     23 H7          1.6450    0.0020   -2.2280 ha        1 B77      0.134000
     24 H9          7.4050   -0.0070   -0.6480 h1        1 B77      0.043367
     25 H9A         6.1440    0.9120   -1.6210 h1        1 B77      0.043367
     26 H9B         6.1410   -0.9230   -1.6200 h1        1 B77      0.043367
     27 H11         2.8050   -0.9170    3.6430 h1        1 B77      0.061700
     28 H11A        2.8100    0.9240    3.6360 h1        1 B77      0.061700
     29 H14         4.3310    0.0160    8.0260 h4        1 B77      0.021100
     30 H15         6.8430    0.0070    7.7460 ha        1 B77      0.142000
     31 H16         7.7930   -0.0040    5.4040 ha        1 B77      0.139000
     32 H17         6.2010   -0.0070    3.4520 ha        1 B77      0.171000
@<TRIPOS>BOND
     1    1    2 1   
     2    1   18 1   
     3    1   19 1   
     4    1   20 1   
     5    2    3 ar  
     6    2    7 ar  
     7    3    4 ar  
     8    3   21 1   
     9    4    5 ar  
    10    4   10 1   
    11    5    6 ar  
    12    5    8 1   
    13    6    7 ar  
    14    6   22 1   
    15    7   23 1   
    16    8    9 1   
    17    9   24 1   
    18    9   25 1   
    19    9   26 1   
    20   10   11 1   
    21   11   12 1   
    22   11   27 1   
    23   11   28 1   
    24   12   13 ar  
    25   12   17 ar  
    26   13   14 ar  
    27   14   15 ar  
    28   14   29 1   
    29   15   16 ar  
    30   15   30 1   
    31   16   17 ar  
    32   16   31 1   
    33   17   32 1   
@<TRIPOS>SUBSTRUCTURE
     1 B77         1 TEMP              0 ****  ****    0 ROOT
