@<TRIPOS>MOLECULE
molecule
   32    33     1     0     0
SMALL
bcc


@<TRIPOS>ATOM
      1 C1           0.0000     0.0000     0.0000 c3         1 B78      -0.031800
      2 C2           1.5070     0.0000     0.0000 ca         1 B78      -0.146300
      3 C3           2.2010     0.0000     1.2020 ca         1 B78       0.172100
      4 C4           3.5870    -0.0010     1.2020 ca         1 B78      -0.252000
      5 C5           4.2770    -0.0000    -0.0010 ca         1 B78       0.173100
      6 C6           3.5790    -0.0000    -1.2000 ca         1 B78      -0.254000
      7 C7           2.1980    -0.0050    -1.1970 ca         1 B78      -0.056000
      8 O8           5.6360    -0.0000    -0.0040 os         1 B78      -0.329900
      9 C9           6.2810    -0.0000    -1.2790 c3         1 B78       0.129700
     10 O10          1.5210     0.0000     2.3790 os         1 B78      -0.318900
     11 C11          2.2990    -0.0010     3.5770 c3         1 B78       0.183700
     12 C12          1.3810    -0.0010     4.7730 ca         1 B78      -0.058300
     13 C13          0.9480    -1.1910     5.3350 ca         1 B78      -0.231300
     14 C14          0.1070    -1.1520     6.4310 ca         1 B78       0.417200
     15 N15         -0.2840    -0.0000     6.9400 nb         1 B78      -0.684000
     16 C16          0.1080     1.1520     6.4320 ca         1 B78       0.417200
     17 C17          0.9540     1.1910     5.3390 ca         1 B78      -0.231300
     18 H1          -0.3610    -0.8920     0.4970 hc         1 B78       0.042700
     19 H1A         -0.3610     0.8770     0.5240 hc         1 B78       0.042700
     20 H1B         -0.3610     0.0150    -1.0210 hc         1 B78       0.042700
     21 H4           4.1300    -0.0010     2.1390 ha         1 B78       0.147000
     22 H6           4.1180    -0.0020    -2.1400 ha         1 B78       0.135000
     23 H7           1.6550    -0.0050    -2.1350 ha         1 B78       0.136000
     24 H9           7.3560     0.0000    -1.1400 h1         1 B78       0.042367
     25 H9A          5.9880     0.8840    -1.8320 h1         1 B78       0.042367
     26 H9B          5.9890    -0.8850    -1.8320 h1         1 B78       0.042367
     27 H11          2.9240     0.8830     3.6020 h1         1 B78       0.047700
     28 H11A         2.9230    -0.8860     3.6010 h1         1 B78       0.047700
     29 H13          1.2660    -2.1400     4.9210 ha         1 B78       0.142000
     30 H14         -0.2360    -2.0780     6.8770 h4         1 B78       0.025100
     31 H16         -0.2320     2.0780     6.8790 h4         1 B78       0.025100
     32 H17          1.2730     2.1400     4.9260 ha         1 B78       0.142000
@<TRIPOS>BOND
     1     1     2 1
     2     2     3 ar
     3     2     7 ar
     4     3     4 ar
     5     3    10 1
     6     4     5 ar
     7     5     6 ar
     8     5     8 1
     9     6     7 ar
    10     8     9 1
    11    10    11 1
    12    11    12 1
    13    12    13 ar
    14    12    17 ar
    15    13    14 ar
    16    14    15 ar
    17    15    16 ar
    18    16    17 ar
    19     1    18 1
    20     1    19 1
    21     1    20 1
    22     4    21 1
    23     6    22 1
    24     7    23 1
    25     9    24 1
    26     9    25 1
    27     9    26 1
    28    11    27 1
    29    11    28 1
    30    13    29 1
    31    14    30 1
    32    16    31 1
    33    17    32 1
@<TRIPOS>SUBSTRUCTURE
     1 B78         1 TEMP              0 ****  ****    0 ROOT
