@<TRIPOS>MOLECULE
B78
   32    33     1     0     0
SMALL
bcc


@<TRIPOS>ATOM
      1 C1          0.1360    0.9390    0.2060 c3        1 B78     -0.037800
      2 C2          1.5610    0.5610    0.0840 ca        1 B78     -0.130300
      3 C3          2.2720    0.0810    1.2100 ca        1 B78      0.154100
      4 C4          3.6120   -0.2940    1.1190 ca        1 B78     -0.231000
      5 C5          4.2570   -0.1850   -0.1280 ca        1 B78      0.154100
      6 C6          3.5760    0.2880   -1.2530 ca        1 B78     -0.231000
      7 C7          2.2360    0.6550   -1.1310 ca        1 B78     -0.069000
      8 O8          5.5810   -0.5780   -0.1200 os        1 B78     -0.328900
      9 C9          6.2690   -0.4880   -1.3630 c3        1 B78      0.113700
     10 O10         1.5310    0.0130    2.3750 os        1 B78     -0.325900
     11 C11         2.2540   -0.3720    3.5520 c3        1 B78      0.167700
     12 C12         1.3240   -0.2770    4.7150 ca        1 B78     -0.053300
     13 C13         1.6690   -0.9190    5.9120 ca        1 B78     -0.232800
     14 C14         0.7990   -0.8020    7.0090 ca        1 B78      0.393200
     15 N15        -0.3560   -0.1080    6.9750 nb        1 B78     -0.663000
     16 C16        -0.6750    0.4990    5.8160 ca        1 B78      0.393200
     17 C17         0.1290    0.4470    4.6620 ca        1 B78     -0.232800
     18 H1         -0.1990    1.5460   -0.6700 hc        1 B78      0.044700
     19 H1A        -0.0290    1.5320    1.1410 hc        1 B78      0.044700
     20 H1B        -0.4990    0.0190    0.2680 hc        1 B78      0.044700
     21 H4          4.1810   -0.6720    1.9780 ha        1 B78      0.153000
     22 H6          4.0770    0.3760   -2.2260 ha        1 B78      0.139000
     23 H7          1.6980    1.0280   -2.0170 ha        1 B78      0.136000
     24 H9          5.7890   -1.1460   -2.1280 h1        1 B78      0.045367
     25 H9A         7.2980   -0.8540   -1.1170 h1        1 B78      0.045367
     26 H9B         6.3010    0.5700   -1.7200 h1        1 B78      0.045367
     27 H11         3.1260    0.3230    3.7010 h1        1 B78      0.057700
     28 H11A        2.6260   -1.4250    3.4270 h1        1 B78      0.057700
     29 H13         2.5950   -1.5010    5.9970 ha        1 B78      0.151500
     30 H14         1.0360   -1.2910    7.9710 h4        1 B78      0.023100
     31 H16        -1.6270    1.0590    5.8120 h4        1 B78      0.023100
     32 H17        -0.1770    0.9560    3.7370 ha        1 B78      0.151500
@<TRIPOS>BOND
     1    1    2 1   
     2    1   18 1   
     3    1   19 1   
     4    1   20 1   
     5    2    3 ar  
     6    2    7 ar  
     7    3    4 ar  
     8    3   10 1   
     9    4    5 ar  
    10    4   21 1   
    11    5    6 ar  
    12    5    8 1   
    13    6    7 ar  
    14    6   22 1   
    15    7   23 1   
    16    8    9 1   
    17    9   24 1   
    18    9   25 1   
    19    9   26 1   
    20   10   11 1   
    21   11   12 1   
    22   11   27 1   
    23   11   28 1   
    24   12   13 ar  
    25   12   17 ar  
    26   13   14 ar  
    27   13   29 1   
    28   14   15 ar  
    29   14   30 1   
    30   15   16 ar  
    31   16   17 ar  
    32   16   31 1   
    33   17   32 1   
@<TRIPOS>SUBSTRUCTURE
     1 B78         1 TEMP              0 ****  ****    0 ROOT
