@<TRIPOS>MOLECULE
molecule
   41    42     1     0     0
SMALL
bcc


@<TRIPOS>ATOM
      1 C10          0.0000     0.0000     0.0000 c3         1 B7A       0.132100
      2 C26          0.8830    -2.1390     3.3150 c          1 B7A       0.799500
      3 C01          0.2550    -0.4570     7.1110 c          1 B7A       0.574100
      4 O02          0.3120    -1.1590     8.0980 o          1 B7A      -0.606100
      5 C03          0.4730    -1.0370     5.7860 cc         1 B7A      -0.420400
      6 C04          0.4120    -0.2540     4.6450 cd         1 B7A      -0.093400
      7 N05          0.6210    -0.8280     3.4340 n          1 B7A      -0.314000
      8 C06          0.5570     0.0000     2.2280 c3         1 B7A       0.312500
      9 C07          1.9210     0.0000     1.4990 c3         1 B7A      -0.153400
     10 C08          1.5450     0.0000     0.0000 c3         1 B7A       0.106100
     11 O09          2.0450     1.1750    -0.6420 oh         1 B7A      -0.610800
     12 C11         -0.5330    -0.8680    -1.1420 c3         1 B7A       0.242400
     13 O12         -1.9590    -0.7910    -1.1740 os         1 B7A      -0.591200
     14 P13         -2.8560    -1.5800    -2.2510 p5         1 B7A       1.447800
     15 O14         -2.7010    -3.1660    -2.0200 o          1 B7A      -0.855000
     16 O15         -2.4050    -1.2350    -3.6170 o          1 B7A      -0.855000
     17 O16         -4.4020    -1.1610    -2.0750 os         1 B7A      -0.725800
     18 P17         -5.7170    -1.3320    -2.9850 p5         1 B7A       1.519800
     19 O18         -5.7710    -2.7090    -3.5230 o          1 B7A      -0.870500
     20 O19         -5.6650    -0.2810    -4.2050 o          1 B7A      -0.870500
     21 O20         -7.0280    -1.0520    -2.0920 os         1 B7A      -0.732800
     22 P21         -8.5850    -1.4320    -2.2430 p5         1 B7A       1.332900
     23 O22         -9.2600    -0.4930    -3.3640 o          1 B7A      -0.800167
     24 O23         -8.7110    -2.8500    -2.6470 o          1 B7A      -0.800167
     25 O24         -9.3310    -1.2070    -0.8340 o          1 B7A      -0.800167
     26 O25         -0.3700    -0.5660     1.2770 os         1 B7A      -0.346600
     27 O27          1.0670    -2.6030     2.2070 o          1 B7A      -0.653500
     28 N28          0.9560    -2.9550     4.3800 ns         1 B7A      -0.574500
     29 C29          0.7640    -2.4720     5.6260 c          1 B7A       0.723700
     30 O30          0.8290    -3.2070     6.5940 o          1 B7A      -0.665500
     31 H1          -0.3740     1.0130    -0.0830 h1         1 B7A       0.063700
     32 H2           0.0410     0.6010     7.2100 h4         1 B7A      -0.050800
     33 H3           0.2020     0.8070     4.7190 h4         1 B7A       0.137000
     34 H4           0.2660     1.0140     2.4760 h2         1 B7A       0.055700
     35 H5           2.4830     0.8920     1.7480 hc         1 B7A       0.050200
     36 H6           2.4830    -0.8920     1.7480 hc         1 B7A       0.050200
     37 H7           1.9220    -0.8930    -0.4830 h1         1 B7A       0.057700
     38 H8           2.8100     0.9560    -1.1480 ho         1 B7A       0.382000
     39 H9          -0.1310    -0.5120    -2.0830 h1         1 B7A       0.033200
     40 H10         -0.2300    -1.8960    -0.9860 h1         1 B7A       0.033200
     41 H15          1.1540    -3.9270     4.2490 hn         1 B7A       0.338500
@<TRIPOS>BOND
     1    27     2 2
     2     2    28 1
     3     2     7 1
     4    28    29 1
     5     9     8 1
     6     9    10 1
     7     8     7 1
     8     8    26 1
     9     7     6 1
    10    11    10 1
    11    29    30 2
    12    29     5 1
    13    10     1 1
    14    26     1 1
    15     6     5 2
    16     1    12 1
    17     5     3 1
    18    19    18 1
    19     3     4 2
    20    12    13 1
    21    13    14 1
    22    18    17 1
    23    18    20 1
    24    18    21 1
    25    17    14 1
    26    21    22 1
    27    14    16 1
    28    14    15 1
    29    22    24 1
    30    22    23 1
    31    22    25 1
    32     1    31 1
    33     3    32 1
    34     6    33 1
    35     8    34 1
    36     9    35 1
    37     9    36 1
    38    10    37 1
    39    11    38 1
    40    12    39 1
    41    12    40 1
    42    28    41 1
@<TRIPOS>SUBSTRUCTURE
     1 B7A         1 TEMP              0 ****  ****    0 ROOT
