@<TRIPOS>MOLECULE
molecule
   60    64     1     0     0
SMALL
bcc


@<TRIPOS>ATOM
      1 C4           0.0000     0.0000     0.0000 ca         1 B7B       0.682200
      2 C5           1.3840     0.0000     0.0000 ca         1 B7B      -0.207000
      3 C6           2.0430     0.0000     1.2320 ca         1 B7B       0.442200
      4 N1           1.3470     0.0220     2.3550 nb         1 B7B      -0.785000
      5 N3          -0.6380     0.0370     1.1810 nb         1 B7B      -0.743000
      6 CAM         -2.2920     1.2610    -2.6180 c3         1 B7B      -0.080900
      7 CAJ         -2.9630     2.6470    -2.5260 c3         1 B7B      -0.083400
      8 CAK         -2.6690     3.1860    -1.1150 c3         1 B7B      -0.083400
      9 CAN         -1.8280     2.1080    -0.3990 c3         1 B7B      -0.080900
     10 CBA         -1.1690     1.3120    -1.5520 c3         1 B7B       0.184500
     11 NBE         -0.8090    -0.0420    -1.1110 nh         1 B7B      -0.715300
     12 CBC         -0.4290    -0.8530    -2.2130 c3         1 B7B       0.176500
     13 CAP          0.0160    -2.2860    -1.9670 c3         1 B7B      -0.081400
     14 CAL          0.8110    -2.6800    -3.2350 c3         1 B7B      -0.090400
     15 CAO          0.8220    -1.4290    -4.1470 c3         1 B7B      -0.070400
     16 CBB          0.6520    -0.2440    -3.1340 c3         1 B7B      -0.177700
     17 CAU          1.9630    -0.1980    -2.3960 c          1 B7B       0.705500
     18 OAD          2.9540    -0.3760    -3.0720 o          1 B7B      -0.633500
     19 NBD          2.1750     0.0070    -1.1310 n          1 B7B      -0.345000
     20 CAA          3.5760     0.3160    -0.8370 c3         1 B7B       0.052300
     21 C2           0.0230     0.0480     2.3220 ca         1 B7B       0.890900
     22 NAS         -0.6830     0.0880     3.5150 nu         1 B7B      -0.742300
     23 CAV         -0.0090    -0.0170     4.7290 ca         1 B7B       0.265600
     24 CAE         -0.4800     0.6630     5.8480 ca         1 B7B      -0.157000
     25 CAG          0.1850     0.5600     7.0480 ca         1 B7B      -0.041000
     26 CAW          1.3350    -0.2290     7.1440 ca         1 B7B      -0.263600
     27 CAT          2.0500    -0.3430     8.4280 c          1 B7B       0.507700
     28 OAC          1.6400     0.2520     9.4070 o          1 B7B      -0.439100
     29 NAB          3.1580    -1.1040     8.5180 nz         1 B7B      -0.676400
     30 CAH          1.8050    -0.9110     6.0180 ca         1 B7B      -0.041000
     31 CAF          1.1330    -0.8080     4.8210 ca         1 B7B      -0.157000
     32 H1           3.1260    -0.0210     1.2670 h4         1 B7B       0.047100
     33 H4          -4.0320     2.5500    -2.6700 hc         1 B7B       0.049450
     34 H5          -2.5420     3.3120    -3.2710 hc         1 B7B       0.049450
     35 H6          -3.5970     3.3470    -0.5800 hc         1 B7B       0.049450
     36 H7          -2.1060     4.1090    -1.1810 hc         1 B7B       0.049450
     37 H8          -2.4670     1.4610     0.1900 hc         1 B7B       0.056200
     38 H9          -1.0710     2.5710     0.2220 hc         1 B7B       0.056200
     39 H10         -0.3040     1.8400    -1.9350 h1         1 B7B       0.044700
     40 H11         -1.3210    -0.9310    -2.8240 h1         1 B7B       0.081700
     41 H12          0.6540    -2.3360    -1.0930 hc         1 B7B       0.053700
     42 H13         -0.8460    -2.9310    -1.8490 hc         1 B7B       0.053700
     43 H14          0.3190    -3.5020    -3.7400 hc         1 B7B       0.057200
     44 H15          1.8240    -2.9530    -2.9670 hc         1 B7B       0.057200
     45 H16          1.7670    -1.3490    -4.6710 hc         1 B7B       0.070700
     46 H17         -0.0080    -1.4580    -4.8420 hc         1 B7B       0.070700
     47 H18          0.3650     0.6910    -3.5990 hc         1 B7B       0.104700
     48 H19          4.0570    -0.5580    -0.4150 h1         1 B7B       0.060367
     49 H20          4.0830     0.6010    -1.7510 h1         1 B7B       0.060367
     50 H21          3.6240     1.1330    -0.1280 h1         1 B7B       0.060367
     51 H22         -1.6810     0.1740     3.5030 hn         1 B7B       0.486800
     52 H23         -1.3710     1.2740     5.7740 ha         1 B7B       0.177000
     53 H24         -0.1830     1.0900     7.9190 ha         1 B7B       0.138000
     54 H25          3.8540    -0.7570     7.8870 hn         1 B7B       0.474800
     55 H26          2.9340    -2.0500     8.2800 hn         1 B7B       0.474800
     56 H27          2.6950    -1.5250     6.0890 ha         1 B7B       0.138000
     57 H28          1.4970    -1.3370     3.9480 ha         1 B7B       0.177000
     58 H2          -1.8700     1.1100    -3.6040 hc         1 B7B       0.056200
     59 HAB3         3.5100    -1.0710     9.4550 hn         1 B7B       0.474800
     60 H3          -3.0040     0.4800    -2.3800 hc         1 B7B       0.056200
@<TRIPOS>BOND
     1     4     3 ar
     2     4    21 ar
     3    22    21 1
     4    22    23 1
     5     3     2 ar
     6    21     5 ar
     7    24    23 ar
     8    24    25 ar
     9    23    31 ar
    10    31    30 ar
    11    25    26 ar
    12     5     1 ar
    13     2    19 1
    14     2     1 ar
    15    20    19 1
    16    29    27 1
    17    30    26 ar
    18    19    17 1
    19    26    27 1
    20     1    11 1
    21    17    18 2
    22    17    16 1
    23    27    28 2
    24    16    12 1
    25    16    15 1
    26    11    10 1
    27    11    12 1
    28    10     6 1
    29    10     9 1
    30    12    13 1
    31    15    14 1
    32     6     7 1
    33     7     8 1
    34     9     8 1
    35    13    14 1
    36     3    32 1
    37     6    58 1
    38     6    60 1
    39     7    33 1
    40     7    34 1
    41     8    35 1
    42     8    36 1
    43     9    37 1
    44     9    38 1
    45    10    39 1
    46    12    40 1
    47    13    41 1
    48    13    42 1
    49    14    43 1
    50    14    44 1
    51    15    45 1
    52    15    46 1
    53    16    47 1
    54    20    48 1
    55    20    49 1
    56    20    50 1
    57    22    51 1
    58    24    52 1
    59    25    53 1
    60    29    54 1
    61    29    55 1
    62    30    56 1
    63    31    57 1
    64    59    29 1
@<TRIPOS>SUBSTRUCTURE
     1 B7B         1 TEMP              0 ****  ****    0 ROOT
