@<TRIPOS>MOLECULE
B7B
   60    64     1     0     0
SMALL
bcc


@<TRIPOS>ATOM
      1 C4           0.0000     0.0000     0.0000 ca         1 B7B       0.538200
      2 C5           1.3840     0.0000     0.0000 ca         1 B7B      -0.334000
      3 C6           2.0430     0.0000     1.2320 ca         1 B7B       0.415200
      4 N1           1.3470     0.0220     2.3550 nb         1 B7B      -0.666000
      5 N3          -0.6380     0.0370     1.1810 nb         1 B7B      -0.617000
      6 CAM         -2.2920     1.2610    -2.6180 c3         1 B7B      -0.030900
      7 CAJ         -2.9630     2.6470    -2.5260 c3         1 B7B      -0.020900
      8 CAK         -2.6690     3.1860    -1.1150 c3         1 B7B      -0.020900
      9 CAN         -1.8280     2.1080    -0.3990 c3         1 B7B      -0.030900
     10 CBA         -1.1690     1.3120    -1.5520 c3         1 B7B       0.115500
     11 NBE         -0.8090    -0.0420    -1.1110 nh         1 B7B      -0.443300
     12 CBC         -0.4290    -0.8530    -2.2130 c3         1 B7B       0.087500
     13 CAP          0.0160    -2.2860    -1.9670 c3         1 B7B      -0.021400
     14 CAL          0.8110    -2.6800    -3.2350 c3         1 B7B      -0.032400
     15 CAO          0.8220    -1.4290    -4.1470 c3         1 B7B      -0.014400
     16 CBB          0.6520    -0.2440    -3.1340 c3         1 B7B      -0.143700
     17 CAU          1.9630    -0.1980    -2.3960 c          1 B7B       0.599500
     18 OAD          2.9540    -0.3760    -3.0720 o          1 B7B      -0.667500
     19 NBD          2.1750     0.0070    -1.1310 n          1 B7B       0.082000
     20 CAA          3.5760     0.3160    -0.8370 c3         1 B7B      -0.004700
     21 C2           0.0230     0.0480     2.3220 ca         1 B7B       0.648900
     22 NAS         -0.6830     0.0880     3.5150 nu         1 B7B      -0.265300
     23 CAV         -0.0090    -0.0170     4.7290 ca         1 B7B       0.105600
     24 CAE         -0.4800     0.6630     5.8480 ca         1 B7B      -0.140000
     25 CAG          0.1850     0.5600     7.0480 ca         1 B7B       0.003000
     26 CAW          1.3350    -0.2290     7.1440 ca         1 B7B      -0.292600
     27 CAT          2.0500    -0.3430     8.4280 c          1 B7B       0.357700
     28 OAC          1.6400     0.2520     9.4070 o          1 B7B      -0.455100
     29 NAB          3.1580    -1.1040     8.5180 nz         1 B7B       0.201600
     30 CAH          1.8050    -0.9110     6.0180 ca         1 B7B       0.003000
     31 CAF          1.1330    -0.8080     4.8210 ca         1 B7B      -0.140000
     32 H1           3.1260    -0.0210     1.2670 h4         1 B7B       0.014100
     33 H4          -4.0320     2.5500    -2.6700 hc         1 B7B       0.018200
     34 H5          -2.5420     3.3120    -3.2710 hc         1 B7B       0.018200
     35 H6          -3.5970     3.3470    -0.5800 hc         1 B7B       0.018200
     36 H7          -2.1060     4.1090    -1.1810 hc         1 B7B       0.018200
     37 H8          -2.4670     1.4610     0.1900 hc         1 B7B       0.026950
     38 H9          -1.0710     2.5710     0.2220 hc         1 B7B       0.026950
     39 H10         -0.3040     1.8400    -1.9350 h1         1 B7B       0.025700
     40 H11         -1.3210    -0.9310    -2.8240 h1         1 B7B       0.059700
     41 H12          0.6540    -2.3360    -1.0930 hc         1 B7B       0.021200
     42 H13         -0.8460    -2.9310    -1.8490 hc         1 B7B       0.021200
     43 H14          0.3190    -3.5020    -3.7400 hc         1 B7B       0.025700
     44 H15          1.8240    -2.9530    -2.9670 hc         1 B7B       0.025700
     45 H16          1.7670    -1.3490    -4.6710 hc         1 B7B       0.040700
     46 H17         -0.0080    -1.4580    -4.8420 hc         1 B7B       0.040700
     47 H18          0.3650     0.6910    -3.5990 hc         1 B7B       0.077700
     48 H19          4.0570    -0.5580    -0.4150 h1         1 B7B       0.036700
     49 H20          4.0830     0.6010    -1.7510 h1         1 B7B       0.036700
     50 H21          3.6240     1.1330    -0.1280 h1         1 B7B       0.036700
     51 H22         -1.6810     0.1740     3.5030 hn         1 B7B       0.310800
     52 H23         -1.3710     1.2740     5.7740 ha         1 B7B       0.146000
     53 H24         -0.1830     1.0900     7.9190 ha         1 B7B       0.103000
     54 H25          3.8540    -0.7570     7.8870 hn         1 B7B       0.243800
     55 H26          2.9340    -2.0500     8.2800 hn         1 B7B       0.243800
     56 H27          2.6950    -1.5250     6.0890 ha         1 B7B       0.103000
     57 H28          1.4970    -1.3370     3.9480 ha         1 B7B       0.146000
     58 H2          -1.8700     1.1100    -3.6040 hc         1 B7B       0.026950
     59 HAB3         3.5100    -1.0710     9.4550 hn         1 B7B       0.243800
     60 H3          -3.0040     0.4800    -2.3800 hc         1 B7B       0.026950
@<TRIPOS>BOND
     1     1     2 ar  
     2     1     5 ar  
     3     1    11 1   
     4     2     3 ar  
     5     2    19 1   
     6     3     4 ar  
     7     3    32 1   
     8     4    21 ar  
     9     5    21 ar  
    10     6     7 1   
    11     6    10 1   
    12     6    58 1   
    13     6    60 1   
    14     7     8 1   
    15     7    33 1   
    16     7    34 1   
    17     8     9 1   
    18     8    35 1   
    19     8    36 1   
    20     9    10 1   
    21     9    37 1   
    22     9    38 1   
    23    10    11 1   
    24    10    39 1   
    25    11    12 1   
    26    12    13 1   
    27    12    16 1   
    28    12    40 1   
    29    13    14 1   
    30    13    41 1   
    31    13    42 1   
    32    14    15 1   
    33    14    43 1   
    34    14    44 1   
    35    15    16 1   
    36    15    45 1   
    37    15    46 1   
    38    16    17 1   
    39    16    47 1   
    40    17    18 2   
    41    17    19 1   
    42    19    20 1   
    43    20    48 1   
    44    20    49 1   
    45    20    50 1   
    46    21    22 1   
    47    22    23 1   
    48    22    51 1   
    49    23    24 ar  
    50    23    31 ar  
    51    24    25 ar  
    52    24    52 1   
    53    25    26 ar  
    54    25    53 1   
    55    26    27 1   
    56    26    30 ar  
    57    27    28 2   
    58    27    29 1   
    59    29    54 1   
    60    29    55 1   
    61    29    59 1   
    62    30    31 ar  
    63    30    56 1   
    64    31    57 1   
@<TRIPOS>SUBSTRUCTURE
     1 B7B         1 TEMP              0 ****  ****    0 ROOT
