@<TRIPOS>MOLECULE
molecule
   29    30     1     0     0
SMALL
bcc


@<TRIPOS>ATOM
      1 C01          0.0000     0.0000     0.0000 c3         1 B7D       0.483700
      2 C02         -0.5130    -1.3510     0.5000 c3         1 B7D       0.126100
      3 Cl03        -2.3120    -1.3020     0.6240 cl         1 B7D      -0.108400
      4 Cl04        -0.0260    -2.6450    -0.6570 cl         1 B7D      -0.108400
      5 N05          1.4620     0.0000     0.0000 nu         1 B7D      -0.747600
      6 C06          2.2270     0.0000     1.1630 ca         1 B7D       0.302600
      7 C07          3.5420    -0.4540     1.1010 ca         1 B7D      -0.144000
      8 C08          4.3320    -0.4510     2.2340 ca         1 B7D       0.141400
      9 Cl09         5.9700    -1.0200     2.1470 cl         1 B7D      -0.066400
     10 C10          3.8230     0.0050     3.4370 ca         1 B7D      -0.383500
     11 S11          4.8380     0.0160     4.8770 sy         1 B7D       1.246200
     12 N12          5.1910    -1.5610     5.2420 nz         1 B7D      -0.811500
     13 O13          6.0650     0.6250     4.4990 o          1 B7D      -0.508300
     14 O14          4.0250     0.5000     5.9380 o          1 B7D      -0.508300
     15 C15          2.5160     0.4510     3.5070 ca         1 B7D       0.127000
     16 C16          1.7220     0.4410     2.3800 ca         1 B7D      -0.361500
     17 S17          0.0400     0.9750     2.4830 sy         1 B7D       1.403200
     18 O18         -0.6900    -0.0840     3.0850 o          1 B7D      -0.590300
     19 O19          0.0610     2.3010     2.9910 o          1 B7D      -0.590300
     20 N20         -0.4730     1.0730     0.8980 n7         1 B7D      -0.924100
     21 H01         -0.3620     0.1830    -1.0050 h2         1 B7D       0.129700
     22 H02         -0.0900    -1.5610     1.4750 h2         1 B7D       0.105700
     23 HN05         1.7950     0.7120    -0.6190 hn         1 B7D       0.438800
     24 H07          3.9460    -0.8130     0.1620 ha         1 B7D       0.189000
     25 HN12         5.9220    -1.8870     4.6410 hn         1 B7D       0.494800
     26 HN1A         5.4890    -1.6240     6.1950 hn         1 B7D       0.494800
     27 H15          2.1150     0.8090     4.4480 ha         1 B7D       0.183000
     28 HN20        -1.0640     1.8140     0.5750 hn         1 B7D       0.491800
     29 H123         4.3740    -2.1240     5.1110 hn         1 B7D       0.494800
@<TRIPOS>BOND
     1     1     2 1
     2     1     5 1
     3     1    20 1
     4     2     3 1
     5     2     4 1
     6     5     6 1
     7     6     7 ar
     8     6    16 ar
     9     7     8 ar
    10     8     9 1
    11     8    10 ar
    12    10    11 1
    13    10    15 ar
    14    11    12 1
    15    11    13 2
    16    11    14 2
    17    15    16 ar
    18    16    17 1
    19    17    18 2
    20    17    19 2
    21    17    20 1
    22     1    21 1
    23     2    22 1
    24     5    23 1
    25     7    24 1
    26    12    25 1
    27    12    26 1
    28    15    27 1
    29    20    28 1
    30    29    12 1
@<TRIPOS>SUBSTRUCTURE
     1 B7D         1 TEMP              0 ****  ****    0 ROOT
