@<TRIPOS>MOLECULE
B7D
   29    30     1     0     0
SMALL
bcc


@<TRIPOS>ATOM
      1 C01          0.0000     0.0000     0.0000 c3         1 B7D       0.347700
      2 C02         -0.5130    -1.3510     0.5000 c3         1 B7D       0.020100
      3 Cl03        -2.3120    -1.3020     0.6240 cl         1 B7D      -0.035900
      4 Cl04        -0.0260    -2.6450    -0.6570 cl         1 B7D      -0.035900
      5 N05          1.4620     0.0000     0.0000 nu         1 B7D      -0.418600
      6 C06          2.2270     0.0000     1.1630 ca         1 B7D       0.204600
      7 C07          3.5420    -0.4540     1.1010 ca         1 B7D      -0.136000
      8 C08          4.3320    -0.4510     2.2340 ca         1 B7D       0.077400
      9 Cl09         5.9700    -1.0200     2.1470 cl         1 B7D       0.031600
     10 C10          3.8230     0.0050     3.4370 ca         1 B7D      -0.279500
     11 S11          4.8380     0.0160     4.8770 sy         1 B7D       0.947200
     12 N12          5.1910    -1.5610     5.2420 nz         1 B7D      -0.144500
     13 O13          6.0650     0.6250     4.4990 o          1 B7D      -0.489800
     14 O14          4.0250     0.5000     5.9380 o          1 B7D      -0.489800
     15 C15          2.5160     0.4510     3.5070 ca         1 B7D       0.188000
     16 C16          1.7220     0.4410     2.3800 ca         1 B7D      -0.223500
     17 S17          0.0400     0.9750     2.4830 sy         1 B7D       1.045200
     18 O18         -0.6900    -0.0840     3.0850 o          1 B7D      -0.548300
     19 O19          0.0610     2.3010     2.9910 o          1 B7D      -0.548300
     20 N20         -0.4730     1.0730     0.8980 n7         1 B7D      -0.594100
     21 H01         -0.3620     0.1830    -1.0050 h2         1 B7D       0.076700
     22 H02         -0.0900    -1.5610     1.4750 h2         1 B7D       0.067700
     23 HN05         1.7950     0.7120    -0.6190 hn         1 B7D       0.302800
     24 H07          3.9460    -0.8130     0.1620 ha         1 B7D       0.152000
     25 HN12         5.9220    -1.8870     4.6410 hn         1 B7D       0.317467
     26 HN1A         5.4890    -1.6240     6.1950 hn         1 B7D       0.317467
     27 H15          2.1150     0.8090     4.4480 ha         1 B7D       0.145000
     28 HN20        -1.0640     1.8140     0.5750 hn         1 B7D       0.384800
     29 H123         4.3740    -2.1240     5.1110 hn         1 B7D       0.317467
@<TRIPOS>BOND
     1     1     2 1   
     2     1     5 1   
     3     1    20 1   
     4     1    21 1   
     5     2     3 1   
     6     2     4 1   
     7     2    22 1   
     8     5     6 1   
     9     5    23 1   
    10     6     7 ar  
    11     6    16 ar  
    12     7     8 ar  
    13     7    24 1   
    14     8     9 1   
    15     8    10 ar  
    16    10    11 1   
    17    10    15 ar  
    18    11    12 1   
    19    11    13 2   
    20    11    14 2   
    21    12    25 1   
    22    12    26 1   
    23    12    29 1   
    24    15    16 ar  
    25    15    27 1   
    26    16    17 1   
    27    17    18 2   
    28    17    19 2   
    29    17    20 1   
    30    20    28 1   
@<TRIPOS>SUBSTRUCTURE
     1 B7D         1 TEMP              0 ****  ****    0 ROOT
