@<TRIPOS>MOLECULE
B7G
   45    45     1     0     0
SMALL
bcc


@<TRIPOS>ATOM
      1 C5         -0.2680    0.0800   -0.0680 c3        1 B7G      0.108100
      2 O5          1.1220   -0.2420    0.0160 os        1 B7G     -0.449600
      3 C1          1.6190   -0.2240    1.3490 c3        1 B7G      0.307900
      4 C2          1.4570    1.1690    1.9910 c3        1 B7G      0.089100
      5 C3         -0.0220    1.5750    1.9420 c3        1 B7G      0.108100
      6 C4         -0.5320    1.4860    0.4920 c3        1 B7G      0.122100
      7 C6         -0.6190    0.0120   -1.5580 c3        1 B7G      0.140400
      8 O1          3.0010   -0.4360    1.1780 os        1 B7G     -0.424600
      9 C7          3.3270   -1.7540    0.7160 c3        1 B7G      0.136400
     10 C8          4.8410   -1.8090    0.6280 c3        1 B7G     -0.085400
     11 C9          5.2890   -3.1700    0.1410 c3        1 B7G     -0.078400
     12 C10         6.7980   -3.2450    0.0480 c3        1 B7G     -0.078400
     13 C11         7.2500   -4.6040   -0.4410 c3        1 B7G     -0.079400
     14 C12         8.7590   -4.6810   -0.5340 c3        1 B7G     -0.080400
     15 O2          1.8250    1.1320    3.3570 oh        1 B7G     -0.603800
     16 O3         -0.1930    2.9220    2.3460 oh        1 B7G     -0.605800
     17 O4         -1.9320    1.6930    0.4480 oh        1 B7G     -0.594800
     18 O6         -0.4580   -1.2960   -2.0600 oh        1 B7G     -0.594800
     19 C13         9.2140   -6.0320   -1.0210 c3        1 B7G     -0.093100
     20 H51        -0.8640   -0.6820    0.5060 h1        1 B7G      0.068700
     21 H11         1.1340   -1.0310    1.9660 h2        1 B7G      0.053700
     22 H21         2.0890    1.9170    1.4380 h1        1 B7G      0.077700
     23 H31        -0.6270    0.9020    2.6110 h1        1 B7G      0.064700
     24 H41        -0.0100    2.2610   -0.1340 h1        1 B7G      0.063700
     25 H61         0.0160    0.7350   -2.1340 h1        1 B7G      0.064700
     26 H62        -1.7080    0.2550   -1.6880 h1        1 B7G      0.064700
     27 H71         2.9330   -2.5090    1.4460 h1        1 B7G      0.038200
     28 H72         2.8530   -1.9220   -0.2860 h1        1 B7G      0.038200
     29 H81         5.2830   -1.5930    1.6350 hc        1 B7G      0.055200
     30 H82         5.2010   -1.0090   -0.0710 hc        1 B7G      0.055200
     31 H91         4.9150   -3.9630    0.8410 hc        1 B7G      0.041700
     32 H92         4.8390   -3.3770   -0.8660 hc        1 B7G      0.041700
     33 H101        7.1710   -2.4500   -0.6510 hc        1 B7G      0.041700
     34 H102        7.2480   -3.0380    1.0550 hc        1 B7G      0.041700
     35 H111        6.8010   -4.8110   -1.4480 hc        1 B7G      0.040200
     36 H112        6.8760   -5.3990    0.2570 hc        1 B7G      0.040200
     37 H121        9.2070   -4.4730    0.4740 hc        1 B7G      0.038700
     38 H122        9.1320   -3.8840   -1.2300 hc        1 B7G      0.038700
     39 HO2         2.7560    0.8720    3.3830 ho        1 B7G      0.425000
     40 HO3         0.2020    2.9990    3.2250 ho        1 B7G      0.427000
     41 HO4        -2.0950    2.5400    0.8870 ho        1 B7G      0.426000
     42 HO6         0.4690   -1.5360   -1.9310 ho        1 B7G      0.409000
     43 H131        8.8730   -6.8380   -0.3260 hc        1 B7G      0.033033
     44 H132        8.7990   -6.2470   -2.0350 hc        1 B7G      0.033033
     45 H133       10.3290   -6.0680   -1.0810 hc        1 B7G      0.033033
@<TRIPOS>BOND
     1    1    2 1   
     2    1    6 1   
     3    1    7 1   
     4    1   20 1   
     5    2    3 1   
     6    3    4 1   
     7    3    8 1   
     8    3   21 1   
     9    4    5 1   
    10    4   15 1   
    11    4   22 1   
    12    5    6 1   
    13    5   16 1   
    14    5   23 1   
    15    6   17 1   
    16    6   24 1   
    17    7   18 1   
    18    7   25 1   
    19    7   26 1   
    20    8    9 1   
    21    9   10 1   
    22    9   27 1   
    23    9   28 1   
    24   10   11 1   
    25   10   29 1   
    26   10   30 1   
    27   11   12 1   
    28   11   31 1   
    29   11   32 1   
    30   12   13 1   
    31   12   33 1   
    32   12   34 1   
    33   13   14 1   
    34   13   35 1   
    35   13   36 1   
    36   14   19 1   
    37   14   37 1   
    38   14   38 1   
    39   15   39 1   
    40   16   40 1   
    41   17   41 1   
    42   18   42 1   
    43   19   43 1   
    44   19   44 1   
    45   19   45 1   
@<TRIPOS>SUBSTRUCTURE
     1 B7G         1 TEMP              0 ****  ****    0 ROOT
