@<TRIPOS>MOLECULE
molecule
   45    45     1     0     0
SMALL
bcc


@<TRIPOS>ATOM
      1 C5           0.0000     0.0000     0.0000 c3         1 B7G       0.142100
      2 O5           1.4250     0.0000     0.0000 os         1 B7G      -0.407600
      3 C1           1.8590     0.0000     1.3570 c3         1 B7G       0.313900
      4 C2           1.4920     1.3310     2.0170 c3         1 B7G       0.116100
      5 C3          -0.0310     1.4980     1.9930 c3         1 B7G       0.118100
      6 C4          -0.5190     1.3290     0.5510 c3         1 B7G       0.104100
      7 C6          -0.5100    -0.1920    -1.4290 c3         1 B7G       0.150400
      8 O1           3.2760    -0.1800     1.4040 os         1 B7G      -0.388600
      9 C7           3.5540    -1.4340     0.7800 c3         1 B7G       0.120400
     10 C8           5.0620    -1.6900     0.7970 c3         1 B7G      -0.083400
     11 C9           5.3600    -3.0330     0.1270 c3         1 B7G      -0.080400
     12 C10          6.8680    -3.2880     0.1450 c3         1 B7G      -0.080400
     13 C11          7.1660    -4.6310    -0.5230 c3         1 B7G      -0.081400
     14 C12          8.6740    -4.8860    -0.5070 c3         1 B7G      -0.084400
     15 O2           1.9530     1.3380     3.3690 oh         1 B7G      -0.592800
     16 O3          -0.3820     2.7980     2.4690 oh         1 B7G      -0.602800
     17 O4          -1.9470     1.3340     0.5240 oh         1 B7G      -0.602800
     18 O6          -0.0330    -1.4370    -1.9430 oh         1 B7G      -0.601800
     19 C13          8.9730    -6.2280    -1.1760 c3         1 B7G      -0.092100
     20 H51         -0.3570    -0.8090     0.6250 h1         1 B7G       0.062700
     21 H11          1.3710    -0.8080     1.8880 h2         1 B7G       0.044700
     22 H21          1.9530     2.1440     1.4680 h1         1 B7G       0.066700
     23 H31         -0.4870     0.7410     2.6190 h1         1 B7G       0.061700
     24 H41         -0.1380     2.1430    -0.0550 h1         1 B7G       0.059700
     25 H61         -0.1510     0.6180    -2.0520 h1         1 B7G       0.036700
     26 H62         -1.5930    -0.1930    -1.4280 h1         1 B7G       0.036700
     27 H71          3.2030    -1.4130    -0.2450 h1         1 B7G       0.041200
     28 H72          3.0470    -2.2260     1.3190 h1         1 B7G       0.041200
     29 H81          5.4130    -1.7120     1.8220 hc         1 B7G       0.051200
     30 H82          5.5680    -0.8980     0.2590 hc         1 B7G       0.051200
     31 H91          5.0090    -3.0110    -0.8970 hc         1 B7G       0.043200
     32 H92          4.8530    -3.8250     0.6650 hc         1 B7G       0.043200
     33 H101         7.3750    -2.4960    -0.3930 hc         1 B7G       0.042200
     34 H102         7.2180    -3.3100     1.1700 hc         1 B7G       0.042200
     35 H111         6.8150    -4.6100    -1.5480 hc         1 B7G       0.041200
     36 H112         6.6610    -5.4230     0.0160 hc         1 B7G       0.041200
     37 H121         9.1800    -4.0940    -1.0470 hc         1 B7G       0.039700
     38 H122         9.0260    -4.9070     0.5170 hc         1 B7G       0.039700
     39 HO2          2.5590     2.0500     3.4920 ho         1 B7G       0.416000
     40 HO3         -0.9130     2.7160     3.2440 ho         1 B7G       0.415000
     41 HO4         -2.2530     2.1750     0.2250 ho         1 B7G       0.415000
     42 HO6         -0.4340    -1.6060    -2.7790 ho         1 B7G       0.404000
     43 H131         8.4680    -7.0200    -0.6360 hc         1 B7G       0.032367
     44 H132         8.6220    -6.2080    -2.2000 hc         1 B7G       0.032367
     45 H133        10.0410    -6.4080    -1.1640 hc         1 B7G       0.032367
@<TRIPOS>BOND
     1     1     2 1
     2     1     6 1
     3     1     7 1
     4     1    20 1
     5     2     3 1
     6     3     4 1
     7     3     8 1
     8     3    21 1
     9     4     5 1
    10     4    15 1
    11     4    22 1
    12     5     6 1
    13     5    16 1
    14     5    23 1
    15     6    17 1
    16     6    24 1
    17     7    18 1
    18     7    25 1
    19     7    26 1
    20     8     9 1
    21     9    10 1
    22     9    27 1
    23     9    28 1
    24    10    11 1
    25    10    29 1
    26    10    30 1
    27    11    12 1
    28    11    31 1
    29    11    32 1
    30    12    13 1
    31    12    33 1
    32    12    34 1
    33    13    14 1
    34    13    35 1
    35    13    36 1
    36    14    19 1
    37    14    37 1
    38    14    38 1
    39    15    39 1
    40    16    40 1
    41    17    41 1
    42    18    42 1
    43    19    43 1
    44    19    44 1
    45    19    45 1
@<TRIPOS>SUBSTRUCTURE
     1 B7G         1 TEMP              0 ****  ****    0 ROOT
