@<TRIPOS>MOLECULE
B7H
   34    36     1     0     0
SMALL
bcc


@<TRIPOS>ATOM
      1 C20          4.7160     1.0490    -3.6030 cg         1 B7H       0.154800
      2 C8           0.0000     0.0000     0.0000 ca         1 B7H      -0.048000
      3 C12          2.0850     0.0000     1.2140 ca         1 B7H      -0.088000
      4 C3           3.6190     0.4590    -2.8950 cc         1 B7H       0.497300
      5 C7           1.3960     0.0000     0.0000 ca         1 B7H      -0.020000
      6 C9          -0.6850     0.0010     1.1920 ca         1 B7H      -0.117300
      7 C2           3.2190     0.7760    -1.5830 cc         1 B7H      -0.263600
      8 C10         -0.0070     0.0010     2.4060 ca         1 B7H      -0.109400
      9 C11          1.3890     0.0010     2.4050 ca         1 B7H       0.087900
     10 C6           2.1410    -0.0020    -1.2780 cd         1 B7H      -0.195300
     11 C15         -2.1910     0.0030     3.0410 c          1 B7H       0.612500
     12 C17         -2.1590     0.0020     1.5280 c3         1 B7H      -0.094700
     13 C18         -2.8350    -1.2560     0.9780 c3         1 B7H       0.027900
     14 C19         -2.8330     1.2590     0.9760 c3         1 B7H       0.027900
     15 N21          5.5890     1.5280    -4.1480 n1         1 B7H      -0.368800
     16 N5           1.8730    -0.7820    -2.3660 na         1 B7H       0.470400
     17 N4           2.8070    -0.4700    -3.3620 nd         1 B7H      -0.624800
     18 N14         -0.9160     0.0030     3.4650 ns         1 B7H       0.000900
     19 O16         -3.1830     0.0050     3.7410 o          1 B7H      -0.628500
     20 F13          2.0630     0.0010     3.5760 f          1 B7H      -0.123900
     21 H8          -0.5420    -0.0000    -0.9380 ha         1 B7H       0.111000
     22 H12          3.1680     0.0000     1.2220 ha         1 B7H       0.139000
     23 H11C         3.8480     1.4290     0.3430 hc         1 B7H       0.013367
     24 H12C         3.3220     2.7270    -0.7370 hc         1 B7H       0.013367
     25 H13C         4.8920     1.9490    -0.9860 hc         1 B7H       0.013367
     26 H14         -0.6840     0.0030     4.4390 hn         1 B7H       0.186500
     27 H5           1.1320    -1.4500    -2.4420 hn         1 B7H       0.154700
     28 H181        -3.8660    -1.2860     1.3110 hc         1 B7H       0.013700
     29 H182        -2.3130    -2.1340     1.3390 hc         1 B7H       0.013700
     30 H183        -2.8060    -1.2380    -0.1040 hc         1 B7H       0.013700
     31 H191        -3.8370     1.3360     1.3760 hc         1 B7H       0.013700
     32 H192        -2.2610     2.1330     1.2650 hc         1 B7H       0.013700
     33 H193        -2.8790     1.1990    -0.1050 hc         1 B7H       0.013700
     34 C1           3.8660     1.7920    -0.6770 c3         1 B7H       0.091200
@<TRIPOS>BOND
     1     1     4 1   
     2     1    15 3   
     3     2     5 ar  
     4     2     6 ar  
     5     2    21 1   
     6     3     5 ar  
     7     3     9 ar  
     8     3    22 1   
     9     4     7 1   
    10     4    17 2   
    11     5    10 1   
    12     6     8 ar  
    13     6    12 1   
    14     7    10 2   
    15     7    34 1   
    16     8     9 ar  
    17     8    18 1   
    18     9    20 1   
    19    10    16 1   
    20    11    12 1   
    21    11    18 1   
    22    11    19 2   
    23    12    13 1   
    24    12    14 1   
    25    13    28 1   
    26    13    29 1   
    27    13    30 1   
    28    14    31 1   
    29    14    32 1   
    30    14    33 1   
    31    16    17 1   
    32    16    27 1   
    33    18    26 1   
    34    23    34 1   
    35    24    34 1   
    36    25    34 1   
@<TRIPOS>SUBSTRUCTURE
     1 B7H         1 TEMP              0 ****  ****    0 ROOT
