@<TRIPOS>MOLECULE
molecule
   59    62     1     0     0
SMALL
bcc


@<TRIPOS>ATOM
      1 C01          0.0000     0.0000     0.0000 ca         1 B7I      -0.069500
      2 C02          1.3950     0.0000     0.0000 ca         1 B7I      -0.153500
      3 C03          2.0900     0.0000     1.2110 ca         1 B7I      -0.069500
      4 C04          1.3950     0.0000     2.4020 ca         1 B7I      -0.192250
      5 C05          0.0070     0.0000     2.3980 ca         1 B7I       0.151100
      6 C06         -0.6870     0.0000     1.1950 ca         1 B7I      -0.192250
      7 C07        -10.3480    -0.0020     8.9120 ca         1 B7I       0.151100
      8 C08        -11.1320    -0.0090     7.7660 ca         1 B7I      -0.192250
      9 C09        -12.5070    -0.0130     7.8680 ca         1 B7I      -0.069500
     10 C10        -13.1110    -0.0140     9.1260 ca         1 B7I      -0.153500
     11 C11        -12.3200    -0.0090    10.2770 ca         1 B7I      -0.069500
     12 C12        -10.9460    -0.0030    10.1660 ca         1 B7I      -0.192250
     13 O13         -0.6740    -0.0010     3.5730 os         1 B7I      -0.329900
     14 C14         -2.1010    -0.0010     3.4960 c3         1 B7I       0.137400
     15 C15         -2.6880    -0.0010     4.9080 c3         1 B7I      -0.082400
     16 C16         -4.2160    -0.0010     4.8270 c3         1 B7I      -0.080400
     17 C17         -4.8030    -0.0020     6.2390 c3         1 B7I      -0.077400
     18 C18         -6.3310    -0.0020     6.1570 c3         1 B7I      -0.080400
     19 C19         -6.9190    -0.0020     7.5700 c3         1 B7I      -0.082400
     20 C20         -8.4460    -0.0020     7.4870 c3         1 B7I       0.137400
     21 O21         -8.9940    -0.0030     8.8070 os         1 B7I      -0.329900
     22 C22          2.1370    -0.0010    -1.2790 cc         1 B7I       0.464000
     23 C23        -14.5850    -0.0190     9.2410 cc         1 B7I       0.464000
     24 N24          3.4940    -0.0070    -1.4160 na         1 B7I      -0.293900
     25 C25          3.7610    -0.0050    -2.7600 cc         1 B7I      -0.275100
     26 C26          2.5740     0.0020    -3.3980 cd         1 B7I       0.315700
     27 N27          1.6010    -0.0020    -2.4790 nd         1 B7I      -0.692500
     28 N28        -15.2960    -0.0200    10.4050 na         1 B7I      -0.293900
     29 C29        -16.6220    -0.0260    10.0640 cc         1 B7I      -0.275100
     30 C30        -16.6840    -0.0290     8.7180 cd         1 B7I       0.315700
     31 N31        -15.4340    -0.0180     8.2380 nd         1 B7I      -0.692500
     32 H1          -0.5420     0.0000    -0.9380 ha         1 B7I       0.141000
     33 H2           3.1730    -0.0000     1.2150 ha         1 B7I       0.141000
     34 H3           1.9330    -0.0000     3.3420 ha         1 B7I       0.142500
     35 H4          -1.7710     0.0000     1.1950 ha         1 B7I       0.142500
     36 H5         -10.6630    -0.0080     6.7890 ha         1 B7I       0.142500
     37 H6         -13.1170    -0.0180     6.9740 ha         1 B7I       0.141000
     38 H7         -12.7850    -0.0100    11.2550 ha         1 B7I       0.141000
     39 H8         -10.3310     0.0010    11.0580 ha         1 B7I       0.142500
     40 H9          -2.4340    -0.8860     2.9670 h1         1 B7I       0.037700
     41 H10         -2.4340     0.8830     2.9660 h1         1 B7I       0.037700
     42 H11         -2.3550    -0.8850     5.4380 hc         1 B7I       0.056700
     43 H12         -2.3550     0.8840     5.4370 hc         1 B7I       0.056700
     44 H13         -4.5500     0.8840     4.2970 hc         1 B7I       0.043700
     45 H14         -4.5490    -0.8850     4.2970 hc         1 B7I       0.043700
     46 H15         -4.4700     0.8830     6.7690 hc         1 B7I       0.046700
     47 H16         -4.4700    -0.8860     6.7680 hc         1 B7I       0.046700
     48 H17         -6.6640    -0.8870     5.6270 hc         1 B7I       0.043700
     49 H18         -6.6640     0.8820     5.6270 hc         1 B7I       0.043700
     50 H19         -6.5850    -0.8860     8.1000 hc         1 B7I       0.056700
     51 H20         -6.5860     0.8830     8.0990 hc         1 B7I       0.056700
     52 H21         -8.7790    -0.8860     6.9580 h1         1 B7I       0.037700
     53 H22         -8.7790     0.8830     6.9580 h1         1 B7I       0.037700
     54 H23          4.1680    -0.0120    -0.6760 hn         1 B7I       0.298700
     55 H24          4.7410    -0.0060    -3.2220 h4         1 B7I       0.173000
     56 H25          2.4320     0.0040    -4.4710 h4         1 B7I       0.040100
     57 H27        -14.9200    -0.0170    11.3330 hn         1 B7I       0.298700
     58 H28        -17.4630    -0.0310    10.7470 h4         1 B7I       0.173000
     59 H29        -17.5900    -0.0320     8.1250 h4         1 B7I       0.040100
@<TRIPOS>BOND
     1    29    30 2
     2    29    28 1
     3    24    25 1
     4    24    22 1
     5    30    31 1
     6     3     4 ar
     7     3     2 ar
     8     4     5 ar
     9    25    26 2
    10    28    23 1
    11    31    23 2
    12    23    10 1
    13    22     2 1
    14    22    27 2
    15     2     1 ar
    16     9    10 ar
    17     9     8 ar
    18     5    13 1
    19     5     6 ar
    20    13    14 1
    21    10    11 ar
    22    26    27 1
    23     8     7 ar
    24    11    12 ar
    25     1     6 ar
    26    16    15 1
    27    16    17 1
    28    14    15 1
    29     7    12 ar
    30     7    21 1
    31    19    20 1
    32    19    18 1
    33    20    21 1
    34    17    18 1
    35     1    32 1
    36     3    33 1
    37     4    34 1
    38     6    35 1
    39     8    36 1
    40     9    37 1
    41    11    38 1
    42    12    39 1
    43    14    40 1
    44    14    41 1
    45    15    42 1
    46    15    43 1
    47    16    44 1
    48    16    45 1
    49    17    46 1
    50    17    47 1
    51    18    48 1
    52    18    49 1
    53    19    50 1
    54    19    51 1
    55    20    52 1
    56    20    53 1
    57    24    54 1
    58    25    55 1
    59    26    56 1
    60    28    57 1
    61    29    58 1
    62    30    59 1
@<TRIPOS>SUBSTRUCTURE
     1 B7I         1 TEMP              0 ****  ****    0 ROOT
