@<TRIPOS>MOLECULE
molecule
   43    44     1     0     0
SMALL
bcc


@<TRIPOS>ATOM
      1 C10          0.0000     0.0000     0.0000 c3         1 B7J       0.132100
      2 C26          0.8820    -2.1380     3.3190 c          1 B7J       0.842900
      3 C01          0.2620    -0.4800     7.1070 c          1 B7J       0.603100
      4 O02          0.2240    -1.2050     8.0790 o          1 B7J      -0.666100
      5 C03          0.4770    -1.0500     5.7750 cc         1 B7J      -0.371800
      6 C04          0.4150    -0.2570     4.6390 cd         1 B7J       0.000600
      7 N05          0.6200    -0.8260     3.4340 n          1 B7J      -0.362000
      8 C06          0.5560     0.0020     2.2270 c3         1 B7J       0.307500
      9 C07          1.9200     0.0000     1.4980 c3         1 B7J      -0.146400
     10 C08          1.5450     0.0000     0.0000 c3         1 B7J       0.107100
     11 O09          2.0450     1.1730    -0.6430 oh         1 B7J      -0.614800
     12 C11         -0.5330    -0.8670    -1.1410 c3         1 B7J       0.240400
     13 O12         -1.9600    -0.7890    -1.1720 os         1 B7J      -0.600200
     14 P13         -2.8580    -1.5800    -2.2500 p5         1 B7J       1.447800
     15 O14         -2.7040    -3.1650    -2.0170 o          1 B7J      -0.843000
     16 O15         -2.4070    -1.2350    -3.6160 o          1 B7J      -0.843000
     17 O16         -4.4020    -1.1590    -2.0730 os         1 B7J      -0.725800
     18 P17         -5.7190    -1.3290    -2.9830 p5         1 B7J       1.562800
     19 O18         -5.6670    -0.2790    -4.2040 o          1 B7J      -0.732000
     20 O19         -5.7740    -2.7070    -3.5200 o          1 B7J      -0.732000
     21 O20         -7.0300    -1.0490    -2.0910 os         1 B7J      -0.717800
     22 P21         -8.5870    -1.4270    -2.2410 p5         1 B7J       1.303900
     23 O22         -9.4690    -0.4430    -1.3220 o          1 B7J      -0.642167
     24 O23         -8.8170    -2.9490    -1.7710 o          1 B7J      -0.642167
     25 O24         -8.9960    -1.2800    -3.6560 o          1 B7J      -0.642167
     26 O25         -0.3710    -0.5650     1.2770 os         1 B7J      -0.348600
     27 O27          1.0660    -2.6050     2.2070 o          1 B7J      -0.667500
     28 N28          0.9530    -2.9460     4.3750 nc         1 B7J      -0.820100
     29 C29          0.7660    -2.4800     5.6010 cd         1 B7J       0.203500
     30 N30          0.8410    -3.3160     6.6870 nz         1 B7J      -0.625600
     31 H1          -0.3740     1.0130    -0.0840 h1         1 B7J       0.055700
     32 H2           0.0500     0.5770     7.2140 h4         1 B7J      -0.027800
     33 H3           0.0230     0.7510     4.7020 h4         1 B7J       0.126000
     34 H4           0.2660     1.0160     2.4750 h2         1 B7J       0.034700
     35 H5           2.4810    -0.8930     1.7480 hc         1 B7J       0.054700
     36 H6           2.4830     0.8920     1.7470 hc         1 B7J       0.054700
     37 H7           1.9220    -0.8940    -0.4830 h1         1 B7J       0.059700
     38 H8           2.8110     0.9530    -1.1480 ho         1 B7J       0.385000
     39 H9          -0.1320    -0.5120    -2.0830 h1         1 B7J       0.038200
     40 H10         -0.2310    -1.8960    -0.9850 h1         1 B7J       0.038200
     41 H15         -0.0410    -3.3310     7.1580 hn         1 B7J       0.390133
     42 H16          1.5490    -2.9860     7.3130 hn         1 B7J       0.390133
     43 H303         1.0720    -4.2400     6.3800 hn         1 B7J       0.390133
@<TRIPOS>BOND
     1    27     2 2
     2     2    28 1
     3     2     7 1
     4    28    29 2
     5     9     8 1
     6     9    10 1
     7     8     7 1
     8     8    26 1
     9     7     6 1
    10    29    30 1
    11    29     5 1
    12    11    10 1
    13    10     1 1
    14    26     1 1
    15     6     5 2
    16     1    12 1
    17     5     3 1
    18    20    18 1
    19    12    13 1
    20     3     4 2
    21    13    14 1
    22    18    17 1
    23    18    19 1
    24    18    21 1
    25    17    14 1
    26    21    22 1
    27    14    15 1
    28    14    16 1
    29    24    22 1
    30    22    23 1
    31    22    25 1
    32     1    31 1
    33     3    32 1
    34     6    33 1
    35     8    34 1
    36     9    35 1
    37     9    36 1
    38    10    37 1
    39    11    38 1
    40    12    39 1
    41    12    40 1
    42    30    41 1
    43    30    42 1
    44    43    30 1
@<TRIPOS>SUBSTRUCTURE
     1 B7J         1 TEMP              0 ****  ****    0 ROOT
