@<TRIPOS>MOLECULE
molecule
   53    56     1     0     0
SMALL
bcc


@<TRIPOS>ATOM
      1 N            0.0000     0.0000     0.0000 n          1 B7K       0.039300
      2 C            1.3530     0.0000     0.0000 c          1 B7K       0.601300
      3 O            1.9810     0.0010    -1.0320 o          1 B7K      -0.576500
      4 C1          -0.7080     0.0060     1.1670 cc         1 B7K       0.236100
      5 C10          1.7270    -0.0010     3.9200 cd         1 B7K      -0.403200
      6 C11          1.0250     0.1090     5.1080 cc         1 B7K      -0.059300
      7 C12          1.6120     0.1470     7.5380 c3         1 B7K       0.072000
      8 C13          0.2790    -0.5530     7.8130 c3         1 B7K      -0.121400
      9 C14         -0.0240    -0.4950     9.3130 c3         1 B7K       0.113500
     10 C16         -1.0050     2.8900    10.7380 ce         1 B7K      -0.223200
     11 C17         -1.9790     3.4100    11.4800 c2         1 B7K      -0.157000
     12 C18          1.2250     1.6990     9.4570 c3         1 B7K       0.113500
     13 C19          1.5140     1.6160     7.9550 c3         1 B7K      -0.121400
     14 C2          -2.0650     0.0050     0.8100 cd         1 B7K      -0.196300
     15 C20          3.0960    -0.1200     4.2560 cd         1 B7K       0.394200
     16 C3          -3.1810     0.0100     1.7070 ch         1 B7K       0.283800
     17 C4          -2.1230    -0.0030    -0.6020 cd         1 B7K       0.386200
     18 C5           2.0540     0.0000     1.3450 c3         1 B7K      -0.233000
     19 C6           2.9520     1.2360     1.4130 c3         1 B7K      -0.416700
     20 C7           4.0770     1.1080     0.3840 c3         1 B7K      -0.093600
     21 C8           2.1240     2.4860     1.1100 c3         1 B7K      -0.093600
     22 C9           1.1570     0.0000     2.5680 cf         1 B7K       0.640900
     23 N1          -0.1360     0.0120     2.3840 ne         1 B7K      -0.638100
     24 N2          -4.0780     0.0070     2.4040 n1         1 B7K      -0.373800
     25 N3          -0.9080     0.0010    -1.0680 nc         1 B7K      -0.484800
     26 N4           1.9210     0.0640     6.1090 na         1 B7K       0.089400
     27 N5           0.0230     0.9060     9.7510 n          1 B7K      -0.475800
     28 N6           3.1990    -0.0790     5.5560 nc         1 B7K      -0.503800
     29 O1          -1.7980     0.7710     9.9220 o          1 B7K      -0.549100
     30 H1           0.0850     0.6440     5.0490 h4         1 B7K       0.208000
     31 H2           2.3960    -0.3370     8.1090 h1         1 B7K       0.075700
     32 H3          -0.0840    -0.7580     6.8130 hc         1 B7K       0.049700
     33 H4           0.6790    -1.5590     7.8480 hc         1 B7K       0.049700
     34 H5           0.6140    -1.2820     9.6970 h1         1 B7K       0.053950
     35 H6          -0.9860    -0.9650     9.4800 h1         1 B7K       0.053950
     36 H7          -0.4290     3.7260    10.3610 ha         1 B7K       0.157000
     37 H8          -1.6420     4.3070    11.9840 ha         1 B7K       0.127000
     38 H9          -2.5710     2.6360    11.9540 ha         1 B7K       0.127000
     39 H10          2.2770     1.6390     9.7080 h1         1 B7K       0.053950
     40 H11          1.1840     2.7300     9.7860 h1         1 B7K       0.053950
     41 H12          2.3590     2.2820     7.8230 hc         1 B7K       0.049700
     42 H13          1.0020     2.0400     7.1000 hc         1 B7K       0.049700
     43 H14          3.5840    -0.7080     3.4880 h4         1 B7K       0.062100
     44 H15         -2.8350     0.3520    -1.3370 h4         1 B7K       0.067100
     45 H16          2.6810    -0.8820     1.3930 hc         1 B7K       0.102700
     46 H17          3.5770     1.3860     0.5410 hc         1 B7K       0.258700
     47 H18          3.9790     2.1110    -0.0120 hc         1 B7K       0.075533
     48 H19          4.9390     1.0670     1.0390 hc         1 B7K       0.075533
     49 H20          4.3170     0.3190    -0.3180 hc         1 B7K       0.075533
     50 H21          2.3630     3.0880     1.9780 hc         1 B7K       0.075533
     51 H22          2.9260     2.9290     0.5330 hc         1 B7K       0.075533
     52 H23          1.2300     2.0960     0.6390 hc         1 B7K       0.075533
     53 C15         -1.0160     1.4540    10.4110 c          1 B7K       0.695300
@<TRIPOS>BOND
     1     8     7 1
     2     8     9 1
     3     7    13 1
     4     7    26 1
     5    10    11 2
     6    10    53 1
     7    28    26 1
     8    28    15 2
     9    13    12 1
    10    29    53 2
    11    53    27 1
    12     9    27 1
    13    26     6 1
    14    27    12 1
    15    15     5 1
    16     6     5 2
    17     5    22 1
    18    24    16 3
    19    20    19 1
    20    16    14 1
    21    23    22 2
    22    23     4 1
    23    22    18 1
    24     4    14 2
    25     4     1 1
    26    14    17 1
    27    18    19 1
    28    18     2 1
    29    19    21 1
    30     1     2 1
    31     1    25 1
    32     2     3 2
    33    17    25 2
    34     6    30 1
    35     7    31 1
    36     8    32 1
    37     8    33 1
    38     9    34 1
    39     9    35 1
    40    10    36 1
    41    11    37 1
    42    11    38 1
    43    12    39 1
    44    12    40 1
    45    13    41 1
    46    13    42 1
    47    15    43 1
    48    17    44 1
    49    18    45 1
    50    19    46 1
    51    20    47 1
    52    20    48 1
    53    20    49 1
    54    21    50 1
    55    21    51 1
    56    21    52 1
@<TRIPOS>SUBSTRUCTURE
     1 B7K         1 TEMP              0 ****  ****    0 ROOT
