@<TRIPOS>MOLECULE
B7M
   45    44     1     0     0
SMALL
bcc


@<TRIPOS>ATOM
      1 O           0.2190   -0.1130   -0.5300 o         1 B7M     -0.528100
      2 C16         1.2990   -0.6480   -0.2780 c         1 B7M      0.564900
      3 C15         2.1260   -0.2890    0.9180 c3        1 B7M     -0.204400
      4 C14         2.9950   -1.4440    1.3660 c3        1 B7M     -0.076400
      5 C13         3.8430   -1.0560    2.5580 c3        1 B7M     -0.078400
      6 C12         4.7120   -2.2100    3.0100 c3        1 B7M     -0.079400
      7 C11         5.5600   -1.8230    4.2030 c3        1 B7M     -0.079400
      8 C10         6.4290   -2.9770    4.6560 c3        1 B7M     -0.080400
      9 C9          7.2830   -2.5880    5.8430 c3        1 B7M     -0.076400
     10 C8          8.1420   -3.7380    6.3300 c3        1 B7M     -0.052200
     11 C7          7.3610   -4.8000    7.0050 c2        1 B7M     -0.154200
     12 C6          7.8750   -5.9450    7.4790 ce        1 B7M     -0.145000
     13 C5          9.2710   -6.3190    7.3980 ce        1 B7M     -0.146000
     14 C4          9.7840   -7.4630    7.8730 c2        1 B7M     -0.152200
     15 C3          9.0040   -8.5220    8.5550 c3        1 B7M     -0.053200
     16 C2          9.8730   -9.6900    8.9790 c3        1 B7M     -0.079400
     17 C1          9.0610  -10.7550    9.6690 c3        1 B7M     -0.093100
     18 H151        1.4600    0.0430    1.7570 hc        1 B7M      0.074200
     19 H152        2.7700    0.5890    0.6400 hc        1 B7M      0.074200
     20 H141        2.3470   -2.3200    1.6350 hc        1 B7M      0.043700
     21 H142        3.6590   -1.7690    0.5220 hc        1 B7M      0.043700
     22 H131        4.4900   -0.1790    2.2910 hc        1 B7M      0.042700
     23 H132        3.1790   -0.7320    3.4020 hc        1 B7M      0.042700
     24 H121        4.0650   -3.0860    3.2780 hc        1 B7M      0.041200
     25 H122        5.3760   -2.5340    2.1660 hc        1 B7M      0.041200
     26 H111        4.8960   -1.4970    5.0470 hc        1 B7M      0.040200
     27 H112        6.2080   -0.9470    3.9350 hc        1 B7M      0.040200
     28 H101        7.0880   -3.3060    3.8100 hc        1 B7M      0.041700
     29 H102        5.7820   -3.8520    4.9290 hc        1 B7M      0.041700
     30 H91C        6.6250   -2.2280    6.6780 hc        1 B7M      0.041200
     31 H92C        7.9500   -1.7330    5.5550 hc        1 B7M      0.041200
     32 H81C        8.9120   -3.3370    7.0460 hc        1 B7M      0.050700
     33 H82C        8.7030   -4.1760    5.4590 hc        1 B7M      0.050700
     34 H7          6.2810   -4.6030    7.1150 ha        1 B7M      0.122000
     35 H6          7.2090   -6.6760    7.9720 ha        1 B7M      0.121000
     36 H5          9.9370   -5.5890    6.9050 ha        1 B7M      0.120000
     37 H4         10.8640   -7.6610    7.7660 ha        1 B7M      0.121000
     38 H31C        8.4930   -8.0920    9.4600 hc        1 B7M      0.050700
     39 H32C        8.1930   -8.8930    7.8700 hc        1 B7M      0.050700
     40 H21C       10.3790  -10.1260    8.0770 hc        1 B7M      0.040700
     41 H22C       10.6800   -9.3250    9.6670 hc        1 B7M      0.040700
     42 H11C        8.5690  -10.3450   10.5840 hc        1 B7M      0.033367
     43 H12C        8.2660  -11.1490    8.9900 hc        1 B7M      0.033367
     44 H13C        9.7180  -11.6060    9.9730 hc        1 B7M      0.033367
     45 HXT         1.7280   -1.4320   -0.9420 h4        1 B7M     -0.006800
@<TRIPOS>BOND
     1    1    2 2
     2    2    3 1
     3    2   45 1
     4    3    4 1
     5    3   18 1
     6    3   19 1
     7    4    5 1
     8    4   20 1
     9    4   21 1
    10    5    6 1
    11    5   22 1
    12    5   23 1
    13    6    7 1
    14    6   24 1
    15    6   25 1
    16    7    8 1
    17    7   26 1
    18    7   27 1
    19    8    9 1
    20    8   28 1
    21    8   29 1
    22    9   10 1
    23    9   30 1
    24    9   31 1
    25   10   11 1
    26   10   32 1
    27   10   33 1
    28   11   12 2
    29   11   34 1
    30   12   13 1
    31   12   35 1
    32   13   14 2
    33   13   36 1
    34   14   15 1
    35   14   37 1
    36   15   16 1
    37   15   38 1
    38   15   39 1
    39   16   17 1
    40   16   40 1
    41   16   41 1
    42   17   42 1
    43   17   43 1
    44   17   44 1
@<TRIPOS>SUBSTRUCTURE
     1 B7M         1 TEMP              0 ****  ****    0 ROOT
