@<TRIPOS>MOLECULE
molecule
   39    40     1     0     0
SMALL
bcc


@<TRIPOS>ATOM
      1 C22          0.0000     0.0000     0.0000 cc         1 B7P      -0.096400
      2 C28          2.0560     0.0000     1.1580 c          1 B7P       0.809500
      3 O01          3.4280    -1.2530    -3.9060 oh         1 B7P      -0.607800
      4 C02          2.1030    -0.8880    -3.5130 c3         1 B7P       0.100100
      5 C03          1.8350    -1.3170    -2.0490 c3         1 B7P      -0.153400
      6 C04          2.0980    -0.0010    -1.2720 c3         1 B7P       0.310500
      7 O05          1.5810     1.0200    -2.1540 os         1 B7P      -0.366600
      8 C06          1.9500     0.6460    -3.4910 c3         1 B7P       0.124100
      9 C07          0.8570     1.0730    -4.4720 c3         1 B7P       0.237400
     10 O08          0.8020     2.5010    -4.5320 os         1 B7P      -0.583200
     11 P09         -0.2370     3.2990    -5.4660 p5         1 B7P       1.441800
     12 O10         -0.0930     2.8440    -6.8670 o          1 B7P      -0.855000
     13 O11         -1.7400     3.0160    -4.9620 o          1 B7P      -0.855000
     14 O12          0.0690     4.8780    -5.3820 os         1 B7P      -0.723800
     15 P13         -0.3710     6.1510    -6.2640 p5         1 B7P       1.518800
     16 O14          0.4560     6.1570    -7.6460 o          1 B7P      -0.874500
     17 O15         -1.8190     6.0730    -6.5550 o          1 B7P      -0.874500
     18 O16         -0.0590     7.5030    -5.4470 os         1 B7P      -0.734800
     19 P17         -0.5930     9.0180    -5.5460 p5         1 B7P       1.335900
     20 O18          0.0760     9.7410    -6.8190 o          1 B7P      -0.844833
     21 O19         -2.0660     9.0120    -5.7000 o          1 B7P      -0.844833
     22 O20         -0.1960     9.8160    -4.2060 o          1 B7P      -0.844833
     23 N21          1.3710     0.0000     0.0000 n          1 B7P      -0.322000
     24 C23         -0.6680     0.0010     1.1730 cd         1 B7P      -0.089700
     25 F24         -2.0190     0.0060     1.1910 f          1 B7P      -0.160500
     26 C25          0.0670    -0.0030     2.3850 c          1 B7P       0.659700
     27 O26         -0.5130    -0.0030     3.4560 o          1 B7P      -0.706500
     28 N27          1.4150    -0.0090     2.3410 ns         1 B7P      -0.569500
     29 O29          3.2720    -0.0050     1.1350 o          1 B7P      -0.718500
     30 H1          -0.5440     0.0000    -0.9370 h4         1 B7P       0.191000
     31 H2           3.3870    -1.9460    -4.5430 ho         1 B7P       0.384000
     32 H5           0.8070    -1.6370    -1.9260 hc         1 B7P       0.052700
     33 H6           3.1600     0.1380    -1.1120 h2         1 B7P       0.094700
     34 H7           2.8920     1.1120    -3.7550 h1         1 B7P       0.077700
     35 H8           1.0800     0.6790    -5.4560 h1         1 B7P       0.025700
     36 H9          -0.0990     0.6890    -4.1380 h1         1 B7P       0.025700
     37 H14          1.9410    -0.0110     3.1930 hn         1 B7P       0.332500
     38 H3           1.3700    -1.3310    -4.1750 h1         1 B7P       0.049700
     39 H4           2.5290    -2.0900    -1.7420 hc         1 B7P       0.052700
@<TRIPOS>BOND
     1    29     2 2
     2     2    28 1
     3     2    23 1
     4    28    26 1
     5     5     6 1
     6     5     4 1
     7     6    23 1
     8     6     7 1
     9    23     1 1
    10     3     4 1
    11    26    27 2
    12    26    24 1
    13     4     8 1
    14     7     8 1
    15     1    24 2
    16     8     9 1
    17    24    25 1
    18    17    15 1
    19     9    10 1
    20    10    11 1
    21    15    14 1
    22    15    16 1
    23    15    18 1
    24    14    11 1
    25    18    19 1
    26    11    12 1
    27    11    13 1
    28    19    21 1
    29    19    20 1
    30    19    22 1
    31     1    30 1
    32     3    31 1
    33     4    38 1
    34     5    39 1
    35     5    32 1
    36     6    33 1
    37     8    34 1
    38     9    35 1
    39     9    36 1
    40    28    37 1
@<TRIPOS>SUBSTRUCTURE
     1 B7P         1 TEMP              0 ****  ****    0 ROOT
