@<TRIPOS>MOLECULE
molecule
   52    55     1     0     0
SMALL
bcc


@<TRIPOS>ATOM
      1 N            0.0000     0.0000     0.0000 n          1 B7Q       0.094300
      2 C            1.3480     0.0000     0.0000 c          1 B7Q       0.621500
      3 O            1.9570     0.0010    -1.0560 o          1 B7Q      -0.564500
      4 C1          -0.6850     0.0050     1.1750 cc         1 B7Q       0.157300
      5 C10          2.0750    -0.0010     3.6890 cd         1 B7Q      -0.285100
      6 C11          1.8420     0.8390     4.7590 cc         1 B7Q      -0.068300
      7 C12          2.8160     1.1460     7.0410 c3         1 B7Q       0.063000
      8 C13          3.7080     2.3860     6.9370 c3         1 B7Q      -0.086900
      9 C14          3.8420     3.0320     8.3200 c3         1 B7Q       0.002000
     10 C16          3.1620     5.6550     9.2050 c3         1 B7Q      -0.504000
     11 C17          1.5300     2.1960     8.9090 c3         1 B7Q       0.002000
     12 C18          1.4220     1.5590     7.5200 c3         1 B7Q      -0.086900
     13 C19          3.1280    -0.8660     4.0600 cd         1 B7Q       0.374200
     14 C2          -2.0420     0.0030     0.8580 cd         1 B7Q      -0.312300
     15 C3          -3.1330     0.0070     1.7850 ch         1 B7Q       0.267800
     16 C4          -2.1370    -0.0020    -0.5520 cd         1 B7Q       0.402200
     17 C5           2.0510     0.0000     1.2120 cc         1 B7Q      -0.259400
     18 C6           3.5580     0.0010     1.2170 c3         1 B7Q       0.033500
     19 C7           4.0710    -1.2820     0.5600 c3         1 B7Q      -0.115100
     20 C8           4.0700     1.2140     0.4360 c3         1 B7Q      -0.115100
     21 C9           1.3540    -0.0010     2.4020 cd         1 B7Q       0.293800
     22 N1          -0.0190     0.0090     2.3770 na         1 B7Q      -0.595400
     23 N2          -3.9890     0.0240     2.5320 n1         1 B7Q      -0.377800
     24 N3          -0.9310     0.0010    -1.0470 nc         1 B7Q      -0.442800
     25 N4           2.7130     0.5070     5.7280 na         1 B7Q       0.064400
     26 N5           2.4970     3.2990     8.8490 n          1 B7Q      -0.160800
     27 N6           3.5010    -0.5540     5.2700 nc         1 B7Q      -0.520800
     28 O1           2.4270     3.7430     9.9270 o          1 B7Q      -0.318100
     29 Cl           2.2900     7.0650     9.4580 cl         1 B7Q      -0.118400
     30 H1           1.2030     1.6660     5.0440 h4         1 B7Q       0.180000
     31 H2           3.2480     0.4520     7.7520 h1         1 B7Q       0.092700
     32 H3           4.7790     2.2410     6.8610 hc         1 B7Q       0.090700
     33 H4           3.2140     3.2200     6.4530 hc         1 B7Q       0.090700
     34 H5           4.1630     2.5370     9.2290 h1         1 B7Q       0.094200
     35 H6           4.3870     3.9680     8.3230 h1         1 B7Q       0.094200
     36 H7           4.0020     5.4620     9.8600 h1         1 B7Q       0.137700
     37 H8           2.3120     4.9860     9.1560 h1         1 B7Q       0.137700
     38 H9           2.1390     1.8370     9.7300 h1         1 B7Q       0.094200
     39 H10          0.5640     2.3260     9.3820 h1         1 B7Q       0.094200
     40 H11          1.0270     2.1950     6.7370 hc         1 B7Q       0.090700
     41 H12          1.0350     0.5510     7.6060 hc         1 B7Q       0.090700
     42 H13          3.8000    -1.5640     3.5750 h4         1 B7Q       0.073100
     43 H14         -3.1470    -0.2560    -0.8510 h4         1 B7Q       0.076100
     44 H16          3.9850    -0.0210     2.2120 hc         1 B7Q       0.054700
     45 H17          5.0480    -1.3160     0.0930 hc         1 B7Q       0.044367
     46 H18          3.6580    -2.1930     0.9770 hc         1 B7Q       0.044367
     47 H19          3.3040    -1.2290    -0.2030 hc         1 B7Q       0.044367
     48 H20          4.5170     1.8410     1.1980 hc         1 B7Q       0.044367
     49 H21          3.4220     1.8030    -0.2020 hc         1 B7Q       0.044367
     50 H22          5.0090     1.0810    -0.0860 hc         1 B7Q       0.044367
     51 H15         -0.7630    -0.2590     2.9910 hn         1 B7Q       0.480800
     52 C15          2.1580     4.5330     9.2710 c          1 B7Q       0.317100
@<TRIPOS>BOND
     1    11    12 1
     2    11    26 1
     3    12     7 1
     4    10    52 1
     5    10    29 1
     6    26    52 1
     7    26     9 1
     8     7    25 1
     9     7     8 1
    10    27    25 1
    11    27    13 2
    12    52    28 2
    13     9     8 1
    14    25     6 1
    15    13     5 1
    16    23    15 3
    17     6     5 2
    18     5    21 1
    19    15    14 1
    20    22    21 1
    21    22     4 1
    22    20    18 1
    23    21    17 2
    24     4    14 2
    25     4     1 1
    26    14    16 1
    27    17    18 1
    28    17     2 1
    29    18    19 1
    30     1     2 1
    31     1    24 1
    32     2     3 2
    33    16    24 2
    34     6    30 1
    35     7    31 1
    36     8    32 1
    37     8    33 1
    38     9    34 1
    39     9    35 1
    40    10    36 1
    41    10    37 1
    42    11    38 1
    43    11    39 1
    44    12    40 1
    45    12    41 1
    46    13    42 1
    47    16    43 1
    48    18    44 1
    49    19    45 1
    50    19    46 1
    51    19    47 1
    52    20    48 1
    53    20    49 1
    54    20    50 1
    55    22    51 1
@<TRIPOS>SUBSTRUCTURE
     1 B7Q         1 TEMP              0 ****  ****    0 ROOT
