@<TRIPOS>MOLECULE
B7Q
   52    56     1     0     0
SMALL
bcc


@<TRIPOS>ATOM
      1 N            0.0000     0.0000     0.0000 n          1 B7Q       0.299000
      2 C            1.3480     0.0000     0.0000 c2         1 B7Q       0.267000
      3 O            1.9570     0.0010    -1.0560 o          1 B7Q      -0.325000
      4 C1          -0.6850     0.0050     1.1750 c2         1 B7Q      -0.223000
      5 C10          2.0750    -0.0010     3.6890 c2         1 B7Q      -0.198000
      6 C11          1.8420     0.8390     4.7590 c2         1 B7Q      -0.199000
      7 C12          2.8160     1.1460     7.0410 c3         1 B7Q      -0.081000
      8 C13          3.7080     2.3860     6.9370 c3         1 B7Q      -0.105500
      9 C14          3.8420     3.0320     8.3200 c3         1 B7Q      -0.204000
     10 C16          3.1620     5.6550     9.2050 c3         1 B7Q      -0.799000
     11 C17          1.5300     2.1960     8.9090 c3         1 B7Q      -0.204000
     12 C18          1.4220     1.5590     7.5200 c3         1 B7Q      -0.105500
     13 C19          3.1280    -0.8660     4.0600 c2         1 B7Q      -0.034000
     14 C2          -2.0420     0.0030     0.8580 c2         1 B7Q      -0.206000
     15 C3          -3.1330     0.0070     1.7850 c1         1 B7Q      -0.059000
     16 C4          -2.1370    -0.0020    -0.5520 c2         1 B7Q      -0.003000
     17 C5           2.0510     0.0000     1.2120 c2         1 B7Q      -0.248000
     18 C6           3.5580     0.0010     1.2170 c3         1 B7Q       0.025000
     19 C7           4.0710    -1.2820     0.5600 c3         1 B7Q      -0.157500
     20 C8           4.0700     1.2140     0.4360 c3         1 B7Q      -0.157500
     21 C9           1.3540    -0.0010     2.4020 c2         1 B7Q       0.034000
     22 N1          -0.0190     0.0090     2.3770 na         1 B7Q       0.279000
     23 N2          -3.9890     0.0240     2.5320 n1         1 B7Q      -0.072000
     24 N3          -0.9310     0.0010    -1.0470 n2         1 B7Q      -0.141000
     25 N4           2.7130     0.5070     5.7280 na         1 B7Q       0.279000
     26 N5           2.4970     3.2990     8.8490 nk         1 B7Q       0.483000
     27 N6           3.5010    -0.5540     5.2700 n2         1 B7Q      -0.225000
     28 O1           2.4270     3.7430     9.9270 op         1 B7Q      -0.144000
     29 Cl           2.2900     7.0650     9.4580 cl         1 B7Q       0.039000
     30 H1           1.2030     1.6660     5.0440 h4         1 B7Q       0.154000
     31 H2           3.2480     0.4520     7.7520 h1         1 B7Q       0.107000
     32 H3           4.7790     2.2410     6.8610 hc         1 B7Q       0.100250
     33 H4           3.2140     3.2200     6.4530 hc         1 B7Q       0.100250
     34 H5           4.1630     2.5370     9.2290 hx         1 B7Q       0.110000
     35 H6           4.3870     3.9680     8.3230 hx         1 B7Q       0.110000
     36 H7           4.0020     5.4620     9.8600 h1         1 B7Q       0.152000
     37 H8           2.3120     4.9860     9.1560 h1         1 B7Q       0.152000
     38 H9           2.1390     1.8370     9.7300 hx         1 B7Q       0.110000
     39 H10          0.5640     2.3260     9.3820 hx         1 B7Q       0.110000
     40 H11          1.0270     2.1950     6.7370 hc         1 B7Q       0.100250
     41 H12          1.0350     0.5510     7.6060 hc         1 B7Q       0.100250
     42 H13          3.8000    -1.5640     3.5750 h4         1 B7Q       0.168000
     43 H14         -3.1470    -0.2560    -0.8510 h4         1 B7Q       0.160000
     44 H16          3.9850    -0.0210     2.2120 hc         1 B7Q       0.070000
     45 H17          5.0480    -1.3160     0.0930 hc         1 B7Q       0.054500
     46 H18          3.6580    -2.1930     0.9770 hc         1 B7Q       0.054500
     47 H19          3.3040    -1.2290    -0.2030 hc         1 B7Q       0.054500
     48 H20          4.5170     1.8410     1.1980 hc         1 B7Q       0.054500
     49 H21          3.4220     1.8030    -0.2020 hc         1 B7Q       0.054500
     50 H22          5.0090     1.0810    -0.0860 hc         1 B7Q       0.054500
     51 H15         -0.7630    -0.2590     2.9910 hn         1 B7Q       0.102000
     52 C15          2.1580     4.5330     9.2710 cu         1 B7Q      -0.045000
@<TRIPOS>BOND
     1     1     2 1   
     2     1     4 1   
     3     1    24 1   
     4     2     3 1   
     5     2    17 1   
     6     4    14 1   
     7     4    22 1   
     8     5     6 1   
     9     5    13 1   
    10     5    21 1   
    11     6    25 1   
    12     6    30 1   
    13     7     8 1   
    14     7    12 1   
    15     7    25 1   
    16     7    31 1   
    17     8     9 1   
    18     8    32 1   
    19     8    33 1   
    20     9    26 1   
    21     9    34 1   
    22     9    35 1   
    23    10    29 1   
    24    10    36 1   
    25    10    37 1   
    26    10    52 1   
    27    11    12 1   
    28    11    26 1   
    29    11    38 1   
    30    11    39 1   
    31    12    40 1   
    32    12    41 1   
    33    13    27 1   
    34    13    42 1   
    35    14    15 1   
    36    14    16 1   
    37    15    23 1   
    38    16    24 1   
    39    16    43 1   
    40    17    18 1   
    41    17    21 1   
    42    18    19 1   
    43    18    20 1   
    44    18    44 1   
    45    19    45 1   
    46    19    46 1   
    47    19    47 1   
    48    20    48 1   
    49    20    49 1   
    50    20    50 1   
    51    21    22 1   
    52    22    51 1   
    53    25    27 1   
    54    26    28 1   
    55    26    52 1   
    56    28    52 1   
@<TRIPOS>SUBSTRUCTURE
     1 B7Q         1 TEMP              0 ****  ****    0 ROOT
