@<TRIPOS>MOLECULE
molecule
   19    20     1     0     0
SMALL
bcc


@<TRIPOS>ATOM
      1 C10          0.0000     0.0000     0.0000 c          1 B7S       0.582900
      2 C01          1.4220     0.0000     0.0000 cc         1 B7S      -0.339200
      3 C02          2.0860     0.0000     1.1690 cd         1 B7S       0.090100
      4 C04          0.1220     0.0110     2.4670 ca         1 B7S       0.187100
      5 C05         -0.4870     0.0100     3.7130 ca         1 B7S      -0.207000
      6 C06         -1.8700     0.0230     3.8070 ca         1 B7S       0.183100
      7 C07         -2.6600     0.0370     2.6610 ca         1 B7S      -0.254000
      8 C08         -2.0700     0.0190     1.4110 ca         1 B7S       0.218100
      9 C09         -0.6730     0.0060     1.3080 ca         1 B7S      -0.263600
     10 O03          1.4670    -0.0010     2.3550 os         1 B7S      -0.213200
     11 O11         -0.6350     0.0010    -1.0410 o          1 B7S      -0.519100
     12 O12         -2.8380     0.0310     0.2930 oh         1 B7S      -0.479100
     13 O13         -2.4610     0.0230     5.0290 oh         1 B7S      -0.517100
     14 H011         1.9670     0.0010    -0.9360 ha         1 B7S       0.169000
     15 H021         3.1690     0.0000     1.1500 h4         1 B7S       0.186000
     16 H051         0.1170    -0.0000     4.6120 ha         1 B7S       0.160000
     17 H071        -3.7390     0.0470     2.7490 ha         1 B7S       0.154000
     18 H121        -3.4340    -0.7000     0.3140 ho         1 B7S       0.429000
     19 H131        -2.5890     0.9120     5.3160 ho         1 B7S       0.430000
@<TRIPOS>BOND
     1    13     6 1
     2     6     5 ar
     3     6     7 ar
     4     5     4 ar
     5     7     8 ar
     6     4    10 1
     7     4     9 ar
     8     8     9 ar
     9     8    12 1
    10    10     3 1
    11     9     1 1
    12     3     2 2
    13     1     2 1
    14     1    11 2
    15     2    14 1
    16     3    15 1
    17     5    16 1
    18     7    17 1
    19    12    18 1
    20    13    19 1
@<TRIPOS>SUBSTRUCTURE
     1 B7S         1 TEMP              0 ****  ****    0 ROOT
