@<TRIPOS>MOLECULE
molecule
   56    60     1     0     0
SMALL
bcc


@<TRIPOS>ATOM
      1 C1           0.0000     0.0000     0.0000 ca         1 B7T      -0.090000
      2 C2           1.3790     0.0000     0.0000 ca         1 B7T      -0.102000
      3 C3           0.0160    -0.0030     2.4070 ca         1 B7T      -0.092000
      4 C7          -0.6920     0.0000     1.2090 cp         1 B7T      -0.016000
      5 C8          -2.1760     0.0050     1.2190 cp         1 B7T      -0.170300
      6 C9           2.0810     0.0000     1.1930 ca         1 B7T      -0.070300
      7 C10          1.3990     0.0050     2.4000 ca         1 B7T      -0.116300
      8 C11         -4.2760     0.0120     0.0830 ca         1 B7T      -0.192600
      9 C12          2.1520     0.2990     5.7390 c2         1 B7T       0.566500
     10 C13          3.5760    -0.0080     1.4500 c3         1 B7T      -0.031100
     11 C14          6.1980     0.0180     2.8980 c3         1 B7T      -0.091400
     12 C15          5.2860     2.2810     2.3530 c3         1 B7T      -0.091400
     13 C16          4.8760    -0.3580     3.5740 c3         1 B7T      -0.067900
     14 C19          6.4280     1.5250     3.0350 c3         1 B7T       0.145100
     15 C20          2.3900     0.0170     3.5310 c3         1 B7T       0.152500
     16 C21          3.7340     0.4120     2.9240 c3         1 B7T      -0.053000
     17 C22         -5.0960     0.0170    -1.1820 c3         1 B7T      -0.048800
     18 N25          1.9860     0.9220     4.6090 n2         1 B7T      -0.528900
     19 N26          1.8550     0.8630     6.9570 nz         1 B7T      -0.714600
     20 O28          7.6670     1.8760     2.4170 os         1 B7T      -0.416600
     21 C4          -2.8930     0.0080     0.0200 ca         1 B7T      -0.082000
     22 C5          -2.8740    -0.0010     2.4230 ca         1 B7T       0.417200
     23 C6          -4.8970     0.0120     1.3190 ca         1 B7T       0.431200
     24 C17          3.9600     1.9150     3.0240 c3         1 B7T      -0.067900
     25 C18          2.4660    -1.3500     4.2290 c3         1 B7T       0.118400
     26 C23          8.3160     3.0020     3.0120 c3         1 B7T       0.126700
     27 N24         -4.1920     0.0040     2.4340 nb         1 B7T      -0.681000
     28 O27          2.6430    -0.9490     5.6060 os         1 B7T      -0.419400
     29 H1          -0.5440     0.0020    -0.9370 ha         1 B7T       0.152000
     30 H2           1.9170    -0.0000    -0.9400 ha         1 B7T       0.149000
     31 H3          -0.5190    -0.0020     3.3500 ha         1 B7T       0.125000
     32 H4           3.9760    -1.0040     1.3000 hc         1 B7T       0.077700
     33 H5           4.0720     0.7050     0.8020 hc         1 B7T       0.077700
     34 H8           5.2470     2.0070     1.3060 hc         1 B7T       0.064950
     35 H9           5.4540     3.3470     2.4470 hc         1 B7T       0.064950
     36 H10          4.7040    -1.4210     3.4590 hc         1 B7T       0.047200
     37 H11          4.9260    -0.1070     4.6260 hc         1 B7T       0.047200
     38 H12          6.4560     1.7890     4.0850 h1         1 B7T       0.028700
     39 H13         -6.0770     0.4280    -0.9750 hc         1 B7T       0.053033
     40 H14         -5.1990    -0.9970    -1.5490 hc         1 B7T       0.053033
     41 H15         -4.6010     0.6230    -1.9310 hc         1 B7T       0.053033
     42 H16          1.6600     1.8370     6.8340 hn         1 B7T       0.482800
     43 H17          1.0530     0.4090     7.3480 hn         1 B7T       0.482800
     44 H18         -2.3950    -0.2350    -0.9110 ha         1 B7T       0.145000
     45 H19         -2.3300    -0.0070     3.3600 h4         1 B7T       0.009100
     46 H20         -5.9790     0.0150     1.3720 h4         1 B7T       0.035100
     47 H21          3.9940     2.2040     4.0680 hc         1 B7T       0.047200
     48 H22          3.1500     2.4340     2.5270 hc         1 B7T       0.047200
     49 H23          3.3200    -1.9170     3.8790 h1         1 B7T       0.110700
     50 H24          1.5430    -1.9020     4.1020 h1         1 B7T       0.110700
     51 H25          7.6280     3.8380     3.0460 h1         1 B7T       0.035367
     52 H26          9.1840     3.2710     2.4220 h1         1 B7T       0.035367
     53 H27          8.6270     2.7490     4.0180 h1         1 B7T       0.035367
     54 H6           7.0110    -0.5150     3.3760 hc         1 B7T       0.064950
     55 H263         2.6290     0.7390     7.5790 hn         1 B7T       0.482800
     56 H7           6.1530    -0.2450     1.8480 hc         1 B7T       0.064950
@<TRIPOS>BOND
     1    20    26 1
     2    20    14 1
     3    11    13 1
     4    11    14 1
     5    13    16 1
     6    14    12 1
     7    10    16 1
     8    10     6 1
     9    12    24 1
    10    16    24 1
    11    16    15 1
    12     6     2 ar
    13     6     7 ar
    14    25    15 1
    15    25    28 1
    16     2     1 ar
    17    15     7 1
    18    15    18 1
    19     7     3 ar
    20    28     9 1
    21     1     4 ar
    22    18     9 2
    23     9    19 1
    24     3     4 ar
    25     4     5 1
    26    22     5 ar
    27    22    27 ar
    28     5    21 ar
    29    27    23 ar
    30    21     8 ar
    31    23     8 ar
    32     8    17 1
    33     1    29 1
    34     2    30 1
    35     3    31 1
    36    10    32 1
    37    10    33 1
    38    11    54 1
    39    11    56 1
    40    12    34 1
    41    12    35 1
    42    13    36 1
    43    13    37 1
    44    14    38 1
    45    17    39 1
    46    17    40 1
    47    17    41 1
    48    19    42 1
    49    19    43 1
    50    21    44 1
    51    22    45 1
    52    23    46 1
    53    24    47 1
    54    24    48 1
    55    25    49 1
    56    25    50 1
    57    26    51 1
    58    26    52 1
    59    26    53 1
    60    55    19 1
@<TRIPOS>SUBSTRUCTURE
     1 B7T         1 TEMP              0 ****  ****    0 ROOT
