@<TRIPOS>MOLECULE
B7T
   56    60     1     0     0
SMALL
bcc


@<TRIPOS>ATOM
      1 C1           0.0000     0.0000     0.0000 ca         1 B7T      -0.066000
      2 C2           1.3790     0.0000     0.0000 ca         1 B7T      -0.067000
      3 C3           0.0160    -0.0030     2.4070 ca         1 B7T      -0.066000
      4 C7          -0.6920     0.0000     1.2090 cp         1 B7T      -0.008000
      5 C8          -2.1760     0.0050     1.2190 cp         1 B7T      -0.163300
      6 C9           2.0810     0.0000     1.1930 ca         1 B7T      -0.074300
      7 C10          1.3990     0.0050     2.4000 ca         1 B7T      -0.140300
      8 C11         -4.2760     0.0120     0.0830 ca         1 B7T      -0.190600
      9 C12          2.1520     0.2990     5.7390 c2         1 B7T       0.316500
     10 C13          3.5760    -0.0080     1.4500 c3         1 B7T       0.031900
     11 C14          6.1980     0.0180     2.8980 c3         1 B7T      -0.046900
     12 C15          5.2860     2.2810     2.3530 c3         1 B7T      -0.046900
     13 C16          4.8760    -0.3580     3.5740 c3         1 B7T      -0.016900
     14 C19          6.4280     1.5250     3.0350 c3         1 B7T       0.179100
     15 C20          2.3900     0.0170     3.5310 c3         1 B7T       0.147500
     16 C21          3.7340     0.4120     2.9240 c3         1 B7T      -0.062000
     17 C22         -5.0960     0.0170    -1.1820 c3         1 B7T       0.067200
     18 N25          1.9860     0.9220     4.6090 n2         1 B7T      -0.420900
     19 N26          1.8550     0.8630     6.9570 nz         1 B7T       0.241400
     20 O28          7.6670     1.8760     2.4170 os         1 B7T      -0.400600
     21 C4          -2.8930     0.0080     0.0200 ca         1 B7T      -0.063000
     22 C5          -2.8740    -0.0010     2.4230 ca         1 B7T       0.392200
     23 C6          -4.8970     0.0120     1.3190 ca         1 B7T       0.414200
     24 C17          3.9600     1.9150     3.0240 c3         1 B7T      -0.016900
     25 C18          2.4660    -1.3500     4.2290 c3         1 B7T       0.184400
     26 C23          8.3160     3.0020     3.0120 c3         1 B7T       0.250700
     27 N24         -4.1920     0.0040     2.4340 nb         1 B7T      -0.571000
     28 O27          2.6430    -0.9490     5.6060 os         1 B7T      -0.387400
     29 H1          -0.5440     0.0020    -0.9370 ha         1 B7T       0.124000
     30 H2           1.9170    -0.0000    -0.9400 ha         1 B7T       0.117000
     31 H3          -0.5190    -0.0020     3.3500 ha         1 B7T       0.103000
     32 H4           3.9760    -1.0040     1.3000 hc         1 B7T       0.047700
     33 H5           4.0720     0.7050     0.8020 hc         1 B7T       0.047700
     34 H8           5.2470     2.0070     1.3060 hc         1 B7T       0.037200
     35 H9           5.4540     3.3470     2.4470 hc         1 B7T       0.037200
     36 H10          4.7040    -1.4210     3.4590 hc         1 B7T       0.020450
     37 H11          4.9260    -0.1070     4.6260 hc         1 B7T       0.020450
     38 H12          6.4560     1.7890     4.0850 h1         1 B7T       0.001700
     39 H13         -6.0770     0.4280    -0.9750 hc         1 B7T       0.015700
     40 H14         -5.1990    -0.9970    -1.5490 hc         1 B7T       0.015700
     41 H15         -4.6010     0.6230    -1.9310 hc         1 B7T       0.015700
     42 H16          1.6600     1.8370     6.8340 hn         1 B7T       0.222133
     43 H17          1.0530     0.4090     7.3480 hn         1 B7T       0.222133
     44 H18         -2.3950    -0.2350    -0.9110 ha         1 B7T       0.122000
     45 H19         -2.3300    -0.0070     3.3600 h4         1 B7T      -0.028900
     46 H20         -5.9790     0.0150     1.3720 h4         1 B7T      -0.008900
     47 H21          3.9940     2.2040     4.0680 hc         1 B7T       0.020450
     48 H22          3.1500     2.4340     2.5270 hc         1 B7T       0.020450
     49 H23          3.3200    -1.9170     3.8790 h1         1 B7T       0.069200
     50 H24          1.5430    -1.9020     4.1020 h1         1 B7T       0.069200
     51 H25          7.6280     3.8380     3.0460 h1         1 B7T      -0.007967
     52 H26          9.1840     3.2710     2.4220 h1         1 B7T      -0.007967
     53 H27          8.6270     2.7490     4.0180 h1         1 B7T      -0.007967
     54 H6           7.0110    -0.5150     3.3760 hc         1 B7T       0.037200
     55 H263         2.6290     0.7390     7.5790 hn         1 B7T       0.222133
     56 H7           6.1530    -0.2450     1.8480 hc         1 B7T       0.037200
@<TRIPOS>BOND
     1     1     2 ar  
     2     1     4 ar  
     3     1    29 1   
     4     2     6 ar  
     5     2    30 1   
     6     3     4 ar  
     7     3     7 ar  
     8     3    31 1   
     9     4     5 1   
    10     5    21 ar  
    11     5    22 ar  
    12     6     7 ar  
    13     6    10 1   
    14     7    15 1   
    15     8    17 1   
    16     8    21 ar  
    17     8    23 ar  
    18     9    18 2   
    19     9    19 1   
    20     9    28 1   
    21    10    16 1   
    22    10    32 1   
    23    10    33 1   
    24    11    13 1   
    25    11    14 1   
    26    11    54 1   
    27    11    56 1   
    28    12    14 1   
    29    12    24 1   
    30    12    34 1   
    31    12    35 1   
    32    13    16 1   
    33    13    36 1   
    34    13    37 1   
    35    14    20 1   
    36    14    38 1   
    37    15    16 1   
    38    15    18 1   
    39    15    25 1   
    40    16    24 1   
    41    17    39 1   
    42    17    40 1   
    43    17    41 1   
    44    19    42 1   
    45    19    43 1   
    46    19    55 1   
    47    20    26 1   
    48    21    44 1   
    49    22    27 ar  
    50    22    45 1   
    51    23    27 ar  
    52    23    46 1   
    53    24    47 1   
    54    24    48 1   
    55    25    28 1   
    56    25    49 1   
    57    25    50 1   
    58    26    51 1   
    59    26    52 1   
    60    26    53 1   
@<TRIPOS>SUBSTRUCTURE
     1 B7T         1 TEMP              0 ****  ****    0 ROOT
