@<TRIPOS>MOLECULE
B7V
   45    47     1     0     0
SMALL
bcc


@<TRIPOS>ATOM
      1 C1           0.0000     0.0000     0.0000 c          1 B7V       0.415700
      2 C2           2.2940     0.0000     1.1100 cc         1 B7V      -0.261300
      3 C3           4.7560     0.0080     1.5240 c3         1 B7V      -0.086000
      4 C7           5.1030    -1.4290     1.9260 c3         1 B7V       0.127400
      5 C8           5.4380    -2.2090     0.7240 c1         1 B7V       0.138700
      6 C9           2.3140    -0.0030    -1.1420 cd         1 B7V       0.625200
      7 C10          3.0870    -0.0090    -3.5430 ca         1 B7V       0.019600
      8 C11          2.8450    -1.0160    -4.1690 ca         1 B7V      -0.025000
      9 C12          3.8900    -0.9790    -5.0760 ca         1 B7V       0.020100
     10 C13          4.3340    -2.6700    -6.9570 c3         1 B7V       0.240700
     11 C14          5.1720     0.0010    -5.4040 ca         1 B7V      -0.055600
     12 C15          5.0920     1.1310    -4.3860 ca         1 B7V      -0.110000
     13 C16          4.0430     1.0500    -3.5140 ca         1 B7V      -0.068000
     14 Cl           6.3380    -0.0570    -6.4900 cl         1 B7V       0.201600
     15 O2           4.6890    -1.5790    -6.3720 os         1 B7V      -0.364900
     16 N4           1.8960    -0.0060    -2.4730 nu         1 B7V      -0.408300
     17 C            1.4720     0.0000     0.0000 cd         1 B7V      -0.500900
     18 N           -0.6730     0.0030     1.1670 nz         1 B7V       0.199600
     19 O           -0.6080     0.0050    -1.0520 o          1 B7V      -0.491100
     20 N3           3.5570     0.0010    -0.7240 nc         1 B7V      -0.701800
     21 N1           3.5620     0.0040     0.6760 na         1 B7V       0.653400
     22 N2           5.6970    -2.7950    -0.2140 n1         1 B7V      -0.301800
     23 C6           6.3060    -1.4060     2.8740 c3         1 B7V      -0.057400
     24 C5           5.9760    -0.5270     4.0840 c3         1 B7V       0.128400
     25 O1           5.6330     0.7860     3.6370 os         1 B7V      -0.351600
     26 C4           4.4870     0.8320     2.7860 c3         1 B7V       0.143400
     27 H1           2.0500    -0.5410     2.0170 h4         1 B7V       0.142000
     28 H2           5.5890     0.4410     0.9830 h1         1 B7V       0.101700
     29 H3           4.2550    -1.8770     2.4310 hc         1 B7V       0.030700
     30 H4           2.1840    -1.8270    -4.4500 ha         1 B7V       0.173000
     31 H5           3.2820    -2.5140    -7.1640 h1         1 B7V      -0.023300
     32 H6           4.8570    -3.0780    -7.8140 h1         1 B7V      -0.023300
     33 H7           4.1230    -3.3740    -6.1600 h1         1 B7V      -0.023300
     34 H8           5.8660     1.8810    -4.4930 ha         1 B7V       0.126000
     35 H9           3.8040     1.8350    -2.8070 ha         1 B7V       0.108000
     36 H10          1.0340     0.2710    -2.9000 hn         1 B7V       0.329800
     37 H11         -0.1330     0.3250     1.9460 hn         1 B7V       0.232800
     38 H12         -1.6250     0.2520     1.3470 hn         1 B7V       0.232800
     39 H13          6.6910    -2.1450     3.5660 hc         1 B7V       0.052200
     40 H14          7.1950    -1.1120     2.3290 hc         1 B7V       0.052200
     41 H15          5.5400    -1.1350     4.8680 h1         1 B7V       0.032200
     42 H16          6.6080    -0.1360     4.8720 h1         1 B7V       0.032200
     43 H17          4.7020     1.8170     2.3920 h1         1 B7V       0.031200
     44 H18          3.5410     0.9090     3.3080 h1         1 B7V       0.031200
     45 HN3         -0.5990    -0.9250     1.5360 hn         1 B7V       0.232800
@<TRIPOS>BOND
     1     1    17 1   
     2     1    18 1   
     3     1    19 2   
     4     2    17 2   
     5     2    21 1   
     6     2    27 1   
     7     3     4 1   
     8     3    21 1   
     9     3    26 1   
    10     3    28 1   
    11     4     5 1   
    12     4    23 1   
    13     4    29 1   
    14     5    22 3   
    15     6    16 1   
    16     6    17 1   
    17     6    20 2   
    18     7     8 ar  
    19     7    13 ar  
    20     7    16 1   
    21     8     9 ar  
    22     8    30 1   
    23     9    11 ar  
    24     9    15 1   
    25    10    15 1   
    26    10    31 1   
    27    10    32 1   
    28    10    33 1   
    29    11    12 ar  
    30    11    14 1   
    31    12    13 ar  
    32    12    34 1   
    33    13    35 1   
    34    16    36 1   
    35    18    37 1   
    36    18    38 1   
    37    18    45 1   
    38    20    21 1   
    39    23    24 1   
    40    23    39 1   
    41    23    40 1   
    42    24    25 1   
    43    24    41 1   
    44    24    42 1   
    45    25    26 1   
    46    26    43 1   
    47    26    44 1   
@<TRIPOS>SUBSTRUCTURE
     1 B7V         1 TEMP              0 ****  ****    0 ROOT
