@<TRIPOS>MOLECULE
molecule
   45    47     1     0     0
SMALL
bcc


@<TRIPOS>ATOM
      1 C1           0.0000     0.0000     0.0000 c          1 B7V       0.565700
      2 C2           2.2940     0.0000     1.1100 cc         1 B7V      -0.097300
      3 C3           4.7560     0.0080     1.5240 c3         1 B7V       0.064000
      4 C7           5.1030    -1.4290     1.9260 c3         1 B7V       0.021400
      5 C8           5.4380    -2.2090     0.7240 c1         1 B7V       0.183700
      6 C9           2.3140    -0.0030    -1.1420 cc         1 B7V       0.709200
      7 C10          3.0870    -0.0090    -3.5430 ca         1 B7V       0.130600
      8 C11          2.8450    -1.0160    -4.1690 ca         1 B7V      -0.024000
      9 C12          3.8900    -0.9790    -5.0760 ca         1 B7V       0.008100
     10 C13          4.3340    -2.6700    -6.9570 c3         1 B7V       0.120700
     11 C14          5.1720     0.0010    -5.4040 ca         1 B7V       0.052400
     12 C15          5.0920     1.1310    -4.3860 ca         1 B7V      -0.126000
     13 C16          4.0430     1.0500    -3.5140 ca         1 B7V      -0.115000
     14 Cl           6.3380    -0.0570    -6.4900 cl         1 B7V       0.086600
     15 O2           4.6890    -1.5790    -6.3720 os         1 B7V      -0.367900
     16 N4           1.8960    -0.0060    -2.4730 nu         1 B7V      -0.817300
     17 C            1.4720     0.0000     0.0000 cc         1 B7V      -0.464900
     18 N           -0.6730     0.0030     1.1670 nz         1 B7V      -0.673400
     19 O           -0.6080     0.0050    -1.0520 o          1 B7V      -0.447100
     20 N3           3.5570     0.0010    -0.7240 nd         1 B7V      -0.536800
     21 N1           3.5620     0.0040     0.6760 na         1 B7V       0.163400
     22 N2           5.6970    -2.7950    -0.2140 n1         1 B7V      -0.303800
     23 C6           6.3060    -1.4060     2.8740 c3         1 B7V      -0.103400
     24 C5           5.9760    -0.5270     4.0840 c3         1 B7V       0.048400
     25 O1           5.6330     0.7860     3.6370 os         1 B7V      -0.364600
     26 C4           4.4870     0.8320     2.7860 c3         1 B7V       0.068400
     27 H1           2.0500    -0.5410     2.0170 h4         1 B7V       0.164000
     28 H2           5.5890     0.4410     0.9830 h1         1 B7V       0.132700
     29 H3           4.2550    -1.8770     2.4310 hc         1 B7V       0.069700
     30 H4           2.1840    -1.8270    -4.4500 ha         1 B7V       0.202000
     31 H5           3.2820    -2.5140    -7.1640 h1         1 B7V       0.010367
     32 H6           4.8570    -3.0780    -7.8140 h1         1 B7V       0.010367
     33 H7           4.1230    -3.3740    -6.1600 h1         1 B7V       0.010367
     34 H8           5.8660     1.8810    -4.4930 ha         1 B7V       0.165000
     35 H9           3.8040     1.8350    -2.8070 ha         1 B7V       0.145000
     36 H10          1.0340     0.2710    -2.9000 hn         1 B7V       0.480800
     37 H11         -0.1330     0.3250     1.9460 hn         1 B7V       0.457800
     38 H12         -1.6250     0.2520     1.3470 hn         1 B7V       0.457800
     39 H13          6.6910    -2.1450     3.5660 hc         1 B7V       0.084200
     40 H14          7.1950    -1.1120     2.3290 hc         1 B7V       0.084200
     41 H15          5.5400    -1.1350     4.8680 h1         1 B7V       0.074200
     42 H16          6.6080    -0.1360     4.8720 h1         1 B7V       0.074200
     43 H17          4.7020     1.8170     2.3920 h1         1 B7V       0.068700
     44 H18          3.5410     0.9090     3.3080 h1         1 B7V       0.068700
     45 HN3         -0.5990    -0.9250     1.5360 hn         1 B7V       0.457800
@<TRIPOS>BOND
     1    14    11 1
     2    12    11 ar
     3    12    13 ar
     4    11     9 ar
     5    13     7 ar
     6     9    15 1
     7     9     8 ar
     8    15    10 1
     9     7     8 ar
    10     7    16 1
    11    16     6 1
    12    19     1 2
    13     6    20 2
    14     6    17 1
    15    26    25 1
    16    26     3 1
    17    20    21 1
    18    25    24 1
    19     1    17 1
    20     1    18 1
    21    17     2 2
    22    21     2 1
    23    21     3 1
    24     3     4 1
    25    24    23 1
    26     4    23 1
    27     4     5 1
    28     5    22 3
    29     2    27 1
    30     3    28 1
    31     4    29 1
    32     8    30 1
    33    10    31 1
    34    10    32 1
    35    10    33 1
    36    12    34 1
    37    13    35 1
    38    16    36 1
    39    18    37 1
    40    18    38 1
    41    23    39 1
    42    23    40 1
    43    24    41 1
    44    24    42 1
    45    26    43 1
    46    26    44 1
    47    45    18 1
@<TRIPOS>SUBSTRUCTURE
     1 B7V         1 TEMP              0 ****  ****    0 ROOT
