@<TRIPOS>MOLECULE
B7W
   36    39     1     0     0
SMALL
bcc


@<TRIPOS>ATOM
      1 CAC          0.0000     0.0000     0.0000 ca         1 B7W      -0.115000
      2 CAB          1.3870     0.0000     0.0000 ca         1 B7W       0.035600
      3 NAA          2.0860     0.0020    -1.2100 nv         1 B7W      -0.562200
      4 CAG          2.0820     0.0000     1.2040 ca         1 B7W      -0.116000
      5 CAF          1.3940    -0.0010     2.4020 ca         1 B7W      -0.091000
      6 CAE          0.0140    -0.0020     2.4110 ca         1 B7W      -0.107000
      7 CAD         -0.6910     0.0040     1.2080 cp         1 B7W      -0.015000
      8 CAH         -2.1750     0.0040     1.2170 cp         1 B7W      -0.173300
      9 CAP         -2.8760     0.0040     2.4210 ca         1 B7W      -0.019000
     10 CAO         -4.2670     0.0040     2.3690 ca         1 B7W      -0.199100
     11 CAI         -2.8890     0.0110     0.0160 ca         1 B7W       0.417200
     12 NAJ         -4.2030     0.0110     0.0010 nb         1 B7W      -0.573000
     13 CAK         -4.9170     0.0050     1.1200 ca         1 B7W       0.224800
     14 NAL         -6.2700     0.0050     1.3680 na         1 B7W       0.271900
     15 CAM         -6.5070     0.0040     2.7120 cc         1 B7W      -0.252100
     16 CAN         -5.3310     0.0040     3.3860 cd         1 B7W      -0.084400
     17 CAQ         -5.1510     0.0020     4.8570 ca         1 B7W      -0.118100
     18 CAV         -5.8380     0.9220     5.6570 ca         1 B7W      -0.071000
     19 CAU         -5.6360     0.8780     7.0250 ca         1 B7W      -0.219300
     20 CAT         -4.7700    -0.0630     7.5520 ca         1 B7W       0.395200
     21 NAS         -4.1370    -0.9170     6.7720 nb         1 B7W      -0.580000
     22 CAR         -4.3000    -0.9180     5.4660 ca         1 B7W       0.404200
     23 H1          -0.5430     0.0050    -0.9370 ha         1 B7W       0.116000
     24 H2           2.3400     0.8690    -1.6400 hn         1 B7W       0.272800
     25 H3           2.3390    -0.8640    -1.6430 hn         1 B7W       0.272800
     26 H4           3.1650     0.0010     1.2020 ha         1 B7W       0.107000
     27 H5           1.9400    -0.0030     3.3380 ha         1 B7W       0.102000
     28 H6          -0.5220    -0.0010     3.3520 ha         1 B7W       0.111000
     29 H7          -2.3680     0.2640     3.3430 ha         1 B7W       0.121000
     30 H8          -2.3480     0.0150    -0.9230 h4         1 B7W      -0.011900
     31 H9          -6.9800     0.0050     0.6620 hn         1 B7W       0.119700
     32 H10         -7.4880     0.0030     3.1720 h4         1 B7W       0.146000
     33 H11         -6.5100     1.6480     5.2170 ha         1 B7W       0.111000
     34 H12         -6.1500     1.5740     7.6760 ha         1 B7W       0.111000
     35 H13         -4.6080    -0.0980     8.6230 h4         1 B7W      -0.021900
     36 H14         -3.7620    -1.6350     4.8580 h4         1 B7W      -0.011900
@<TRIPOS>BOND
     1     1     2 ar  
     2     1     7 ar  
     3     1    23 1   
     4     2     3 1   
     5     2     4 ar  
     6     3    24 1   
     7     3    25 1   
     8     4     5 ar  
     9     4    26 1   
    10     5     6 ar  
    11     5    27 1   
    12     6     7 ar  
    13     6    28 1   
    14     7     8 1   
    15     8     9 ar  
    16     8    11 ar  
    17     9    10 ar  
    18     9    29 1   
    19    10    13 ar  
    20    10    16 1   
    21    11    12 ar  
    22    11    30 1   
    23    12    13 ar  
    24    13    14 1   
    25    14    15 1   
    26    14    31 1   
    27    15    16 2   
    28    15    32 1   
    29    16    17 1   
    30    17    18 ar  
    31    17    22 ar  
    32    18    19 ar  
    33    18    33 1   
    34    19    20 ar  
    35    19    34 1   
    36    20    21 ar  
    37    20    35 1   
    38    21    22 ar  
    39    22    36 1   
@<TRIPOS>SUBSTRUCTURE
     1 B7W         1 TEMP              0 ****  ****    0 ROOT
