@<TRIPOS>MOLECULE
B7Z
   52    55     1     0     0
SMALL
bcc


@<TRIPOS>ATOM
      1 C1           0.0000     0.0000     0.0000 cc         1 B7Z       0.329800
      2 C2           2.0070     0.0000     1.1540 ca         1 B7Z       0.047100
      3 C3           1.3130    -0.0120     2.3840 ca         1 B7Z      -0.178600
      4 C4           2.0450    -0.0290     3.5700 ca         1 B7Z      -0.138300
      5 C5           3.4230    -0.0350     3.4960 ca         1 B7Z       0.394200
      6 C6           3.4110    -0.0070     1.1780 ca         1 B7Z       0.339800
      7 N1           1.3000     0.0000     0.0000 nd         1 B7Z      -0.495100
      8 O3          10.6590     5.0880    -6.4560 o          1 B7Z      -0.656100
      9 C7           5.3980     0.4660    -0.1870 cc         1 B7Z      -0.237300
     10 N           -0.7490     0.0010     1.1330 ns         1 B7Z      -0.013400
     11 C           -0.1570    -0.0050     2.3520 c          1 B7Z       0.614100
     12 C10          6.9690     2.1000    -2.6470 c3         1 B7Z       0.152800
     13 C11          8.4950     1.6560    -4.4730 c3         1 B7Z       0.132800
     14 C12          9.9120     1.9310    -4.9870 c3         1 B7Z       0.048500
     15 C13         10.5340     3.8890    -6.3260 c          1 B7Z       0.594100
     16 C14         10.8940     2.9660    -7.4620 c3         1 B7Z      -0.112400
     17 C15         11.3880     3.7910    -8.6520 c3         1 B7Z       0.236400
     18 C19          9.7140     4.2640    -4.0450 c3         1 B7Z       0.048500
     19 C20          8.3030     3.8980    -3.5680 c3         1 B7Z       0.132800
     20 C21          4.6320    -0.2890    -2.1370 cd         1 B7Z       0.396200
     21 C8           5.7270     0.2940    -1.4870 cd         1 B7Z      -0.318600
     22 C9           7.0420     0.6640    -2.1260 c3         1 B7Z       0.069900
     23 N2           4.0500    -0.0230     2.3330 nb         1 B7Z      -0.563000
     24 N3           4.1310     0.0050    -0.0190 na         1 B7Z       0.509600
     25 N4           8.2500     2.4610    -3.2690 n3         1 B7Z      -0.542600
     26 N5          10.0720     3.3810    -5.1660 n          1 B7Z      -0.157800
     27 N7           3.6750    -0.4560    -1.2610 nc         1 B7Z      -0.619800
     28 O1          11.7300     2.9160    -9.7290 oh         1 B7Z      -0.605800
     29 O           -0.8130    -0.0150     3.3760 o          1 B7Z      -0.650500
     30 H1          -0.5130     0.0050    -0.9540 h5         1 B7Z       0.009800
     31 H2           1.5430    -0.0390     4.5300 ha         1 B7Z       0.137000
     32 H3           4.0020    -0.0480     4.4110 h4         1 B7Z      -0.010900
     33 H4           6.0310     0.8930     0.5820 h4         1 B7Z       0.159000
     34 H5          -1.7470     0.0010     1.0680 hn         1 B7Z       0.185500
     35 H6           6.1760     2.1780    -3.3810 h1         1 B7Z       0.012700
     36 H7           6.7660     2.7730    -1.8230 h1         1 B7Z       0.012700
     37 H8           8.3980     0.6050    -4.2300 h1         1 B7Z       0.018700
     38 H9           7.7760     1.9240    -5.2380 h1         1 B7Z       0.018700
     39 H10         10.0580     1.4290    -5.9360 h1         1 B7Z       0.035450
     40 H11         10.6360     1.5720    -4.2650 h1         1 B7Z       0.035450
     41 H12         10.0210     2.3960    -7.7550 hc         1 B7Z       0.038200
     42 H13         11.6770     2.2890    -7.1420 hc         1 B7Z       0.038200
     43 H14         12.2610     4.3610    -8.3590 h1         1 B7Z       0.000200
     44 H15         10.6050     4.4680    -8.9710 h1         1 B7Z       0.000200
     45 H16         10.4190     4.1250    -3.2340 h1         1 B7Z       0.035450
     46 H17          9.7300     5.2960    -4.3760 h1         1 B7Z       0.035450
     47 H18          7.5880     4.1310    -4.3480 h1         1 B7Z       0.018700
     48 H19          8.0680     4.4620    -2.6740 h1         1 B7Z       0.018700
     49 H20          4.5830    -0.5500    -3.1870 h4         1 B7Z       0.004100
     50 H21          7.2450    -0.0090    -2.9490 hc         1 B7Z       0.022700
     51 H22          7.8340     0.5860    -1.3910 hc         1 B7Z       0.022700
     52 H24         12.0340     3.4240   -10.4620 ho         1 B7Z       0.394000
@<TRIPOS>BOND
     1     1     7 2   
     2     1    10 1   
     3     1    30 1   
     4     2     3 ar  
     5     2     6 ar  
     6     2     7 1   
     7     3     4 ar  
     8     3    11 1   
     9     4     5 ar  
    10     4    31 1   
    11     5    23 ar  
    12     5    32 1   
    13     6    23 ar  
    14     6    24 1   
    15     8    15 2   
    16     9    21 2   
    17     9    24 1   
    18     9    33 1   
    19    10    11 1   
    20    10    34 1   
    21    11    29 2   
    22    12    22 1   
    23    12    25 1   
    24    12    35 1   
    25    12    36 1   
    26    13    14 1   
    27    13    25 1   
    28    13    37 1   
    29    13    38 1   
    30    14    26 1   
    31    14    39 1   
    32    14    40 1   
    33    15    16 1   
    34    15    26 1   
    35    16    17 1   
    36    16    41 1   
    37    16    42 1   
    38    17    28 1   
    39    17    43 1   
    40    17    44 1   
    41    18    19 1   
    42    18    26 1   
    43    18    45 1   
    44    18    46 1   
    45    19    25 1   
    46    19    47 1   
    47    19    48 1   
    48    20    21 1   
    49    20    27 2   
    50    20    49 1   
    51    21    22 1   
    52    22    50 1   
    53    22    51 1   
    54    24    27 1   
    55    28    52 1   
@<TRIPOS>SUBSTRUCTURE
     1 B7Z         1 TEMP              0 ****  ****    0 ROOT
