@<TRIPOS>MOLECULE
B80
   58    61     1     0     0
SMALL
bcc


@<TRIPOS>ATOM
      1 O31          0.0000     0.0000     0.0000 o          1 B80      -0.584800
      2 S35          1.4220     0.0000     0.0000 s6         1 B80       0.952900
      3 O30          2.1550     0.0000     1.2170 o          1 B80      -0.584800
      4 C20          2.0580    -1.2700    -1.1270 c3         1 B80       0.014700
      5 N26          1.8290     1.4340    -0.7220 nu         1 B80      -0.408500
      6 C10          1.2630     1.7840    -1.9520 ca         1 B80       0.013600
      7 C4          -0.1000     1.6150    -2.1650 ca         1 B80      -0.098000
      8 C3          -0.6660     1.9510    -3.3760 ca         1 B80      -0.085000
      9 C7           2.0640     2.3050    -2.9660 ca         1 B80      -0.003000
     10 C12          1.5000     2.6440    -4.1670 ca         1 B80      -0.176500
     11 C9           0.1300     2.4660    -4.4040 ca         1 B80       0.203400
     12 N23         -0.4220     2.7960    -5.6010 ne         1 B80      -0.569100
     13 S34          2.4710     3.3370    -5.4750 sy         1 B80       1.029200
     14 O28          2.4530     4.7470    -5.3030 o          1 B80      -0.570300
     15 O29          3.6640     2.5680    -5.5580 o          1 B80      -0.570300
     16 N24          1.5740     3.0000    -6.8450 nu         1 B80      -0.466100
     17 C15          0.1970     3.0570    -6.7100 cf         1 B80       0.669500
     18 C13         -0.6040     3.4460    -7.8840 cf         1 B80      -0.331800
     19 C14         -1.3100     4.6110    -7.8800 c2         1 B80       0.176900
     20 O32         -1.2500     5.4330    -6.8180 oh         1 B80      -0.460100
     21 C17         -2.1590     4.9760    -9.0710 c3         1 B80      -0.036200
     22 C18         -1.5050     4.4730   -10.3550 c3         1 B80       0.039700
     23 C22         -2.4830     4.6420   -11.5210 c3         1 B80      -0.060400
     24 C19         -2.7780     6.1290   -11.7260 c3         1 B80       0.005900
     25 C16         -0.6450     2.5840    -9.0740 c          1 B80       0.668700
     26 O27         -0.2320     1.4410    -9.0160 o          1 B80      -0.688500
     27 N25         -1.1470     3.0610   -10.2280 n          1 B80      -0.147800
     28 C21         -1.3290     2.1590   -11.3680 c3         1 B80       0.100300
     29 C8          -0.0440     2.0700   -12.1500 ca         1 B80      -0.139300
     30 C1           0.8430     1.0380   -11.9050 ca         1 B80      -0.060500
     31 C5           2.0220     0.9550   -12.6200 ca         1 B80      -0.135500
     32 C2           0.2460     3.0170   -13.1140 ca         1 B80      -0.060500
     33 C6           1.4240     2.9360   -13.8320 ca         1 B80      -0.135500
     34 C11          2.3150     1.9060   -13.5830 ca         1 B80       0.110900
     35 F33          3.4670     1.8260   -14.2830 f          1 B80      -0.127900
     36 H20          1.3550    -1.4180    -1.9380 h1         1 B80       0.065700
     37 H20A         2.1880    -2.2000    -0.5870 h1         1 B80       0.065700
     38 H20B         3.0120    -0.9500    -1.5300 h1         1 B80       0.065700
     39 HN26         2.4720     2.0560    -0.2720 hn         1 B80       0.351800
     40 H4          -0.7250     1.2340    -1.3670 ha         1 B80       0.170000
     41 H3          -1.7300     1.8160    -3.5320 ha         1 B80       0.121000
     42 H7           3.1390     2.3380    -2.8440 ha         1 B80       0.117000
     43 HN24         2.0100     2.7710    -7.7160 hn         1 B80       0.365800
     44 HO32        -2.1250     5.6490    -6.5380 ho         1 B80       0.415000
     45 H17         -3.1360     4.5210    -8.9650 hc         1 B80       0.043700
     46 H17A        -2.2620     6.0530    -9.1200 hc         1 B80       0.043700
     47 H18         -0.6090     5.0510   -10.5470 h1         1 B80       0.037700
     48 H22         -3.4040     4.1180   -11.2980 hc         1 B80       0.033200
     49 H22A        -2.0430     4.2340   -12.4230 hc         1 B80       0.033200
     50 H19         -3.5190     6.4530   -11.0040 hc         1 B80       0.007367
     51 H19A        -3.1570     6.2870   -12.7280 hc         1 B80       0.007367
     52 H19B        -1.8680     6.7010   -11.5900 hc         1 B80       0.007367
     53 H21         -1.6030     1.1740   -11.0090 h1         1 B80       0.043200
     54 H21A        -2.1150     2.5410   -12.0080 h1         1 B80       0.043200
     55 H1           0.6140     0.2940   -11.1510 ha         1 B80       0.119500
     56 H5           2.7180     0.1470   -12.4260 ha         1 B80       0.120500
     57 H2          -0.4520     3.8230   -13.3080 ha         1 B80       0.119500
     58 H6           1.6510     3.6790   -14.5860 ha         1 B80       0.120500
@<TRIPOS>BOND
     1     1     2 2   
     2     2     3 2   
     3     2     4 1   
     4     2     5 1   
     5     4    36 1   
     6     4    37 1   
     7     4    38 1   
     8     5     6 1   
     9     5    39 1   
    10     6     7 ar  
    11     6     9 ar  
    12     7     8 ar  
    13     7    40 1   
    14     8    11 ar  
    15     8    41 1   
    16     9    10 ar  
    17     9    42 1   
    18    10    11 ar  
    19    10    13 1   
    20    11    12 1   
    21    12    17 2   
    22    13    14 2   
    23    13    15 2   
    24    13    16 1   
    25    16    17 1   
    26    16    43 1   
    27    17    18 1   
    28    18    19 2   
    29    18    25 1   
    30    19    20 1   
    31    19    21 1   
    32    20    44 1   
    33    21    22 1   
    34    21    45 1   
    35    21    46 1   
    36    22    23 1   
    37    22    27 1   
    38    22    47 1   
    39    23    24 1   
    40    23    48 1   
    41    23    49 1   
    42    24    50 1   
    43    24    51 1   
    44    24    52 1   
    45    25    26 2   
    46    25    27 1   
    47    27    28 1   
    48    28    29 1   
    49    28    53 1   
    50    28    54 1   
    51    29    30 ar  
    52    29    32 ar  
    53    30    31 ar  
    54    30    55 1   
    55    31    34 ar  
    56    31    56 1   
    57    32    33 ar  
    58    32    57 1   
    59    33    34 ar  
    60    33    58 1   
    61    34    35 1   
@<TRIPOS>SUBSTRUCTURE
     1 B80         1 TEMP              0 ****  ****    0 ROOT
