@<TRIPOS>MOLECULE
molecule
   51    54     1     0     0
SMALL
bcc


@<TRIPOS>ATOM
      1 C1           0.0000     0.0000     0.0000 c3         1 B81      -0.066400
      2 C2           1.5300     0.0000     0.0000 c3         1 B81      -0.090400
      3 C3           2.0450     0.0000     1.4400 c3         1 B81       0.149100
      4 O3           3.4710     0.0880     1.4350 oh         1 B81      -0.607800
      5 C4           1.6160    -1.2950     2.1360 c3         1 B81      -0.052200
      6 C5           0.1060    -1.4230     2.0210 c2         1 B81      -0.112400
      7 C6          -0.5770    -1.6500     3.1040 c2         1 B81      -0.171200
      8 C7          -2.0710    -1.7870     3.1170 c3         1 B81      -0.039200
      9 C8          -2.5450    -2.2750     1.7420 c3         1 B81      -0.054700
     10 C9          -2.0280    -1.2910     0.6830 c3         1 B81      -0.050700
     11 C10         -0.5080    -1.2840     0.6590 c3         1 B81      -0.012800
     12 C11         -2.5650    -1.6220    -0.7070 c3         1 B81      -0.081400
     13 C12         -4.0990    -1.7190    -0.7170 c3         1 B81      -0.064400
     14 C13         -4.4860    -2.7840     0.2920 c3         1 B81      -0.063000
     15 C14         -4.0600    -2.2760     1.6950 c3         1 B81      -0.069700
     16 C15         -4.7970    -3.2120     2.6470 c3         1 B81      -0.071400
     17 C16         -6.0810    -3.6360     1.8920 c3         1 B81      -0.107400
     18 C17         -5.9910    -3.0120     0.4720 c3         1 B81       0.151100
     19 O17         -6.4850    -3.9240    -0.5120 oh         1 B81      -0.599800
     20 C18         -3.7780    -4.1030    -0.0220 c3         1 B81      -0.082100
     21 C19         -0.0390    -2.4710    -0.1840 c3         1 B81      -0.086100
     22 H1          -0.3600     0.0480    -1.0210 hc         1 B81       0.045200
     23 H1A         -0.3600     0.8570     0.5560 hc         1 B81       0.045200
     24 H2           1.8890    -0.8860    -0.5100 hc         1 B81       0.053200
     25 H2A          1.8890     0.8860    -0.5100 hc         1 B81       0.053200
     26 H3           1.6290     0.8480     1.9700 h1         1 B81       0.032700
     27 HO3          3.7410     0.8370     1.9400 ho         1 B81       0.400000
     28 H4           2.0900    -2.1420     1.6540 hc         1 B81       0.056700
     29 H4A          1.8990    -1.2580     3.1810 hc         1 B81       0.056700
     30 H6          -0.0420    -1.7450     4.0410 ha         1 B81       0.120000
     31 H7          -2.3610    -2.5060     3.8740 hc         1 B81       0.049200
     32 H7A         -2.5200    -0.8250     3.3330 hc         1 B81       0.049200
     33 H8          -2.1640    -3.2700     1.5460 hc         1 B81       0.070700
     34 H9          -2.3680    -0.2970     0.9490 hc         1 B81       0.048700
     35 H11         -2.2570    -0.8450    -1.3960 hc         1 B81       0.047700
     36 H11A        -2.1500    -2.5700    -1.0270 hc         1 B81       0.047700
     37 H12         -4.5290    -0.7670    -0.4320 hc         1 B81       0.044700
     38 H12A        -4.4420    -2.0050    -1.7040 hc         1 B81       0.044700
     39 H14         -4.4230    -1.2650     1.8350 hc         1 B81       0.050700
     40 H15         -4.1870    -4.0800     2.8650 hc         1 B81       0.044700
     41 H15A        -5.0550    -2.6890     3.5600 hc         1 B81       0.044700
     42 H16         -6.9550    -3.2560     2.4080 hc         1 B81       0.049200
     43 H16A        -6.1270    -4.7160     1.8200 hc         1 B81       0.049200
     44 H17         -6.5270    -2.0710     0.4350 h1         1 B81       0.036700
     45 HO17        -7.3860    -3.7230    -0.7020 ho         1 B81       0.398000
     46 H18         -3.0330    -4.3040     0.7390 hc         1 B81       0.043033
     47 H18A        -3.2950    -4.0320    -0.9900 hc         1 B81       0.043033
     48 H18B        -4.5030    -4.9080    -0.0380 hc         1 B81       0.043033
     49 H19          1.0170    -2.6410    -0.0120 hc         1 B81       0.038367
     50 H19A        -0.2040    -2.2570    -1.2330 hc         1 B81       0.038367
     51 H19B        -0.5970    -3.3570     0.0960 hc         1 B81       0.038367
@<TRIPOS>BOND
     1     1    11 1
     2     1     2 1
     3     1    22 1
     4     1    23 1
     5     2     3 1
     6     2    24 1
     7     2    25 1
     8     3     5 1
     9     3     4 1
    10     3    26 1
    11     4    27 1
    12     6     5 1
    13     5    28 1
    14     5    29 1
    15    11     6 1
    16     6     7 2
    17     8     7 1
    18     7    30 1
    19     9     8 1
    20     8    31 1
    21     8    32 1
    22    15     9 1
    23    10     9 1
    24     9    33 1
    25    12    10 1
    26    10    11 1
    27    10    34 1
    28    21    11 1
    29    13    12 1
    30    12    35 1
    31    12    36 1
    32    13    14 1
    33    13    37 1
    34    13    38 1
    35    18    14 1
    36    14    20 1
    37    14    15 1
    38    15    16 1
    39    15    39 1
    40    17    16 1
    41    16    40 1
    42    16    41 1
    43    18    17 1
    44    17    42 1
    45    17    43 1
    46    19    18 1
    47    18    44 1
    48    19    45 1
    49    20    46 1
    50    20    47 1
    51    20    48 1
    52    21    49 1
    53    21    50 1
    54    21    51 1
@<TRIPOS>SUBSTRUCTURE
     1 B81         1 TEMP              0 ****  ****    0 ROOT
