@<TRIPOS>MOLECULE
B81
   51    54     1     0     0
SMALL
bcc


@<TRIPOS>ATOM
      1 C1          0.0540   -0.1190   -0.1100 c3        1 B81     -0.070400
      2 C2          1.5420    0.1310   -0.0300 c3        1 B81     -0.075400
      3 C3          1.9770    0.2490    1.4240 c3        1 B81      0.145100
      4 O3          3.3880    0.4330    1.4160 oh        1 B81     -0.600800
      5 C4          1.5990   -1.0100    2.2000 c3        1 B81     -0.076200
      6 C5          0.1550   -1.3490    2.0480 c2        1 B81     -0.104400
      7 C6         -0.5800   -1.6430    3.1300 c2        1 B81     -0.168200
      8 C7         -2.0100   -2.0150    3.0960 c3        1 B81     -0.042200
      9 C8         -2.4750   -2.4010    1.6990 c3        1 B81     -0.045700
     10 C9         -1.9400   -1.3940    0.6700 c3        1 B81     -0.048700
     11 C10        -0.3930   -1.3830    0.6420 c3        1 B81      0.000200
     12 C11        -2.5300   -1.6100   -0.7210 c3        1 B81     -0.075400
     13 C12        -4.0440   -1.7440   -0.7460 c3        1 B81     -0.063400
     14 C13        -4.4960   -2.8130    0.2330 c3        1 B81     -0.043000
     15 C14        -3.9870   -2.3930    1.6300 c3        1 B81     -0.067700
     16 C15        -4.7840   -3.2580    2.5990 c3        1 B81     -0.068400
     17 C16        -6.1540   -3.4160    1.9350 c3        1 B81     -0.117400
     18 C17        -6.0220   -2.8800    0.4920 c3        1 B81      0.141100
     19 O17        -6.6350   -3.7320   -0.4580 oh        1 B81     -0.591800
     20 C18        -4.0140   -4.1840   -0.2070 c3        1 B81     -0.075100
     21 C19         0.1560   -2.6160   -0.0700 c3        1 B81     -0.084100
     22 H1         -0.2370   -0.2140   -1.1890 hc        1 B81      0.045200
     23 H1A        -0.4910    0.7670    0.3110 hc        1 B81      0.045200
     24 H2          1.8010    1.0770   -0.5710 hc        1 B81      0.055200
     25 H2A         2.1090   -0.7030   -0.5200 hc        1 B81      0.055200
     26 H3          1.4920    1.1480    1.9000 h1        1 B81      0.035700
     27 HO3         3.6700    0.4560    2.3380 ho        1 B81      0.398000
     28 H4          1.8570   -0.8640    3.2830 hc        1 B81      0.051200
     29 H4A         2.2240   -1.8670    1.8250 hc        1 B81      0.051200
     30 H6         -0.1350   -1.6060    4.1390 ha        1 B81      0.119000
     31 H7         -2.1980   -2.8750    3.7940 hc        1 B81      0.048200
     32 H7A        -2.6170   -1.1470    3.4740 hc        1 B81      0.048200
     33 H8         -2.0860   -3.4280    1.4620 hc        1 B81      0.060700
     34 H9         -2.2700   -0.3720    1.0190 hc        1 B81      0.046700
     35 H11        -2.0850   -2.5300   -1.1830 hc        1 B81      0.043200
     36 H11A       -2.2440   -0.7400   -1.3700 hc        1 B81      0.043200
     37 H12        -4.3760   -2.0120   -1.7820 hc        1 B81      0.044200
     38 H12A       -4.5190   -0.7630   -0.4810 hc        1 B81      0.044200
     39 H14        -4.3190   -1.3250    1.8000 hc        1 B81      0.045700
     40 H15        -4.2940   -4.2520    2.7410 hc        1 B81      0.044700
     41 H15A       -4.8680   -2.7710    3.6000 hc        1 B81      0.044700
     42 H16        -6.4610   -4.4910    1.9150 hc        1 B81      0.047200
     43 H16A       -6.9350   -2.8420    2.4900 hc        1 B81      0.047200
     44 H17        -6.4720   -1.8520    0.4120 h1        1 B81      0.034700
     45 HO17       -7.5630   -3.7980   -0.2040 ho        1 B81      0.398000
     46 H18        -4.4540   -4.4290   -1.2040 hc        1 B81      0.040033
     47 H18A       -4.3480   -4.9600    0.5240 hc        1 B81      0.040033
     48 H18B       -2.9020   -4.2230   -0.2860 hc        1 B81      0.040033
     49 H19        -0.3580   -3.5400    0.2880 hc        1 B81      0.038033
     50 H19A        1.2510   -2.7250    0.1240 hc        1 B81      0.038033
     51 H19B        0.0100   -2.5280   -1.1730 hc        1 B81      0.038033
@<TRIPOS>BOND
     1    1    2 1   
     2    1   11 1   
     3    1   22 1   
     4    1   23 1   
     5    2    3 1   
     6    2   24 1   
     7    2   25 1   
     8    3    4 1   
     9    3    5 1   
    10    3   26 1   
    11    4   27 1   
    12    5    6 1   
    13    5   28 1   
    14    5   29 1   
    15    6    7 2   
    16    6   11 1   
    17    7    8 1   
    18    7   30 1   
    19    8    9 1   
    20    8   31 1   
    21    8   32 1   
    22    9   10 1   
    23    9   15 1   
    24    9   33 1   
    25   10   11 1   
    26   10   12 1   
    27   10   34 1   
    28   11   21 1   
    29   12   13 1   
    30   12   35 1   
    31   12   36 1   
    32   13   14 1   
    33   13   37 1   
    34   13   38 1   
    35   14   15 1   
    36   14   18 1   
    37   14   20 1   
    38   15   16 1   
    39   15   39 1   
    40   16   17 1   
    41   16   40 1   
    42   16   41 1   
    43   17   18 1   
    44   17   42 1   
    45   17   43 1   
    46   18   19 1   
    47   18   44 1   
    48   19   45 1   
    49   20   46 1   
    50   20   47 1   
    51   20   48 1   
    52   21   49 1   
    53   21   50 1   
    54   21   51 1   
@<TRIPOS>SUBSTRUCTURE
     1 B81         1 TEMP              0 ****  ****    0 ROOT
