@<TRIPOS>MOLECULE
B82
   45    46     1     0     0
SMALL
bcc


@<TRIPOS>ATOM
      1 S1           0.0000     0.0000     0.0000 sy         1 B82       1.044200
      2 O26          1.4210     0.0000     0.0000 o          1 B82      -0.584800
      3 O25         -0.7790     0.0000     1.1890 o          1 B82      -0.584800
      4 N20         -0.4680     1.3330    -0.8640 n3         1 B82      -0.526500
      5 C23          0.4030     1.8690    -1.9140 c3         1 B82       0.226300
      6 C24         -0.0160     1.2950    -3.2680 c3         1 B82      -0.028100
      7 C21         -1.7540     1.9760    -0.5810 c3         1 B82       0.226300
      8 C22         -1.5270     3.1960     0.3140 c3         1 B82      -0.028100
      9 C2          -0.4980    -1.4190    -0.9190 ca         1 B82      -0.144500
     10 C18          0.0230    -2.6630    -0.6050 ca         1 B82       0.138100
     11 Br           1.2660    -2.8340     0.8100 br         1 B82      -0.114100
     12 C17         -0.3630    -3.7830    -1.3220 ca         1 B82      -0.117000
     13 C16         -1.2680    -3.6650    -2.3560 ca         1 B82      -0.024000
     14 C4          -1.7960    -2.4140    -2.6780 ca         1 B82      -0.152600
     15 C5          -2.7670    -2.2800    -3.7840 c          1 B82       0.560700
     16 O15         -3.2250    -1.1880    -4.0630 o          1 B82      -0.687100
     17 N6          -3.1440    -3.3680    -4.4850 ns         1 B82      -0.004100
     18 C7          -4.1340    -3.2600    -5.4570 ca         1 B82      -0.071400
     19 C14         -5.0880    -2.2560    -5.3740 ca         1 B82      -0.154000
     20 C13         -6.0680    -2.1510    -6.3410 ca         1 B82      -0.108000
     21 C12         -6.1080    -3.0440    -7.3990 ca         1 B82      -0.157000
     22 C11         -5.1680    -4.0470    -7.4990 ca         1 B82      -0.048000
     23 C8          -4.1670    -4.1640    -6.5320 ca         1 B82      -0.139600
     24 C9          -3.1560    -5.2310    -6.6360 c          1 B82       0.992200
     25 O45         -2.3430    -5.3860    -5.7460 o          1 B82      -0.885800
     26 O10         -3.1330    -6.0350    -7.7160 o          1 B82      -0.885800
     27 C3          -1.4070    -1.2880    -1.9470 ca         1 B82       0.023000
     28 H23          0.3190     2.9480    -1.9370 h1         1 B82       0.025700
     29 H23A         1.4300     1.5910    -1.7060 h1         1 B82       0.025700
     30 H24          0.3840     1.9140    -4.0620 hc         1 B82       0.010700
     31 H24A        -1.0970     1.2780    -3.3340 hc         1 B82       0.010700
     32 H24B         0.3670     0.2870    -3.3670 hc         1 B82       0.010700
     33 H21         -2.2140     2.2900    -1.5100 h1         1 B82       0.025700
     34 H22         -0.5780     3.0960     0.8270 hc         1 B82       0.010700
     35 H22A        -1.5160     4.0930    -0.2940 hc         1 B82       0.010700
     36 H17          0.0470    -4.7530    -1.0710 ha         1 B82       0.121000
     37 H16         -1.5700    -4.5420    -2.9160 ha         1 B82       0.139000
     38 HN6         -2.7430    -4.2600    -4.2760 hn         1 B82       0.236500
     39 H14         -5.0640    -1.5540    -4.5490 ha         1 B82       0.140000
     40 H13         -6.8110    -1.3660    -6.2710 ha         1 B82       0.083000
     41 H12         -6.8820    -2.9540    -8.1510 ha         1 B82       0.085000
     42 H11         -5.2030    -4.7420    -8.3300 ha         1 B82       0.127000
     43 H3          -1.8140    -0.3140    -2.1920 ha         1 B82       0.137000
     44 H18         -2.4060     1.2730    -0.0750 h1         1 B82       0.025700
     45 H19         -2.3260     3.2630     1.0420 hc         1 B82       0.010700
@<TRIPOS>BOND
     1     1     2 2   
     2     1     3 2   
     3     1     4 1   
     4     1     9 1   
     5     4     5 1   
     6     4     7 1   
     7     5     6 1   
     8     5    28 1   
     9     5    29 1   
    10     6    30 1   
    11     6    31 1   
    12     6    32 1   
    13     7     8 1   
    14     7    33 1   
    15     7    44 1   
    16     8    34 1   
    17     8    35 1   
    18     8    45 1   
    19     9    10 ar  
    20     9    27 ar  
    21    10    11 1   
    22    10    12 ar  
    23    12    13 ar  
    24    12    36 1   
    25    13    14 ar  
    26    13    37 1   
    27    14    15 1   
    28    14    27 ar  
    29    15    16 2   
    30    15    17 1   
    31    17    18 1   
    32    17    38 1   
    33    18    19 ar  
    34    18    23 ar  
    35    19    20 ar  
    36    19    39 1   
    37    20    21 ar  
    38    20    40 1   
    39    21    22 ar  
    40    21    41 1   
    41    22    23 ar  
    42    22    42 1   
    43    23    24 1   
    44    24    25 1   
    45    24    26 1   
    46    27    43 1   
@<TRIPOS>SUBSTRUCTURE
     1 B82         1 TEMP              0 ****  ****    0 ROOT
