@<TRIPOS>MOLECULE
B83
   60    63     1     0     0
SMALL
bcc


@<TRIPOS>ATOM
      1 C1           0.0000     0.0000     0.0000 ca         1 B83      -0.133600
      2 C2           1.4040     0.0000     0.0000 ca         1 B83      -0.070400
      3 C3           2.0910     0.0000     1.2070 ca         1 B83      -0.138000
      4 C4           1.3950    -0.0010     2.3990 ca         1 B83      -0.112000
      5 C5           0.0100    -0.0020     2.4020 ca         1 B83      -0.156000
      6 C6          -0.6890    -0.0000     1.2160 ca         1 B83      -0.050000
      7 C7          -0.7410     0.0070    -1.2730 c          1 B83       0.988200
      8 O8          -0.1410     0.0970    -2.3260 o          1 B83      -0.888300
      9 O9          -2.0860    -0.0880    -1.2700 o          1 B83      -0.888300
     10 N10          2.1020    -0.0000    -1.2030 ns         1 B83      -0.000100
     11 C11          3.2680    -0.6690    -1.3050 c          1 B83       0.559700
     12 O12          3.6600    -1.3520    -0.3790 o          1 B83      -0.680100
     13 C13          4.0680    -0.5720    -2.5400 ca         1 B83      -0.092600
     14 C14          3.6190     0.2130    -3.6050 ca         1 B83      -0.104000
     15 C15          4.3670     0.3030    -4.7580 ca         1 B83      -0.113000
     16 C16          5.5700    -0.3850    -4.8660 ca         1 B83      -0.030400
     17 C17          6.0250    -1.1710    -3.8050 ca         1 B83       0.143100
     18 C18          5.2820    -1.2610    -2.6450 ca         1 B83      -0.151000
     19 O19          7.2020    -1.8430    -3.9110 os         1 B83      -0.208200
     20 C20          7.6580    -2.5090    -2.8180 ca         1 B83       0.108100
     21 C21          7.0730    -3.7090    -2.4420 ca         1 B83      -0.118000
     22 C22          7.5380    -4.3850    -1.3290 ca         1 B83      -0.086500
     23 C23          8.5860    -3.8650    -0.5920 ca         1 B83      -0.113000
     24 C24          9.1710    -2.6690    -0.9650 ca         1 B83      -0.086500
     25 C25          8.7130    -1.9920    -2.0800 ca         1 B83      -0.118000
     26 N26          6.3220    -0.2920    -6.0340 nh         1 B83      -0.381000
     27 C27          5.5980    -0.8660    -7.1740 c3         1 B83       0.148300
     28 C28          6.5090    -0.8780    -8.4050 c3         1 B83      -0.054700
     29 C29          6.9470     0.5530    -8.7230 c3         1 B83      -0.025400
     30 C30          7.6550     1.1460    -7.5030 c3         1 B83      -0.054700
     31 C31          6.7120     1.0990    -6.2980 c3         1 B83       0.148300
     32 C32          8.0430     2.5970    -7.7920 c3         1 B83       0.007900
     33 C33          5.7460    -1.4580    -9.5990 c3         1 B83       0.007900
     34 H3           3.1750     0.0000     1.2130 ha         1 B83       0.123000
     35 H4           1.9360    -0.0020     3.3380 ha         1 B83       0.082000
     36 H5          -0.5270    -0.0030     3.3440 ha         1 B83       0.084000
     37 H6          -1.7720    -0.0010     1.2250 ha         1 B83       0.127000
     38 HN10         1.7660     0.5390    -1.9760 hn         1 B83       0.225500
     39 H14          2.6820     0.7510    -3.5240 ha         1 B83       0.134000
     40 H15          4.0170     0.9120    -5.5830 ha         1 B83       0.111000
     41 H18          5.6330    -1.8700    -1.8210 ha         1 B83       0.150000
     42 H21          6.2520    -4.1170    -3.0200 ha         1 B83       0.117000
     43 H22          7.0820    -5.3220    -1.0350 ha         1 B83       0.100500
     44 H23          8.9480    -4.3940     0.2810 ha         1 B83       0.099000
     45 H24          9.9930    -2.2650    -0.3870 ha         1 B83       0.100500
     46 H25          9.1720    -1.0550    -2.3720 ha         1 B83       0.117000
     47 H27          5.3010    -1.8800    -6.9370 h1         1 B83       0.015950
     48 H27A         4.7210    -0.2660    -7.3820 h1         1 B83       0.015950
     49 H28          7.3830    -1.4840    -8.1990 hc         1 B83       0.037700
     50 H29          7.6270     0.5430    -9.5660 hc         1 B83       0.013700
     51 H29A         6.0760     1.1520    -8.9610 hc         1 B83       0.013700
     52 H30          8.5440     0.5650    -7.2860 hc         1 B83       0.037700
     53 H31          7.2180     1.5020    -5.4300 h1         1 B83       0.015950
     54 H31A         5.8270     1.6860    -6.5120 h1         1 B83       0.015950
     55 H32          7.1520     3.1720    -8.0120 hc         1 B83       0.000367
     56 H32A         8.5400     3.0180    -6.9260 hc         1 B83       0.000367
     57 H32B         8.7130     2.6290    -8.6430 hc         1 B83       0.000367
     58 H33          5.4360    -2.4710    -9.3710 hc         1 B83       0.000367
     59 H33A         4.8730    -0.8500    -9.8000 hc         1 B83       0.000367
     60 H33B         6.3900    -1.4650   -10.4700 hc         1 B83       0.000367
@<TRIPOS>BOND
     1     1     2 ar  
     2     1     6 ar  
     3     1     7 1   
     4     2     3 ar  
     5     2    10 1   
     6     3     4 ar  
     7     3    34 1   
     8     4     5 ar  
     9     4    35 1   
    10     5     6 ar  
    11     5    36 1   
    12     6    37 1   
    13     7     8 1   
    14     7     9 1   
    15    10    11 1   
    16    10    38 1   
    17    11    12 2   
    18    11    13 1   
    19    13    14 ar  
    20    13    18 ar  
    21    14    15 ar  
    22    14    39 1   
    23    15    16 ar  
    24    15    40 1   
    25    16    17 ar  
    26    16    26 1   
    27    17    18 ar  
    28    17    19 1   
    29    18    41 1   
    30    19    20 1   
    31    20    21 ar  
    32    20    25 ar  
    33    21    22 ar  
    34    21    42 1   
    35    22    23 ar  
    36    22    43 1   
    37    23    24 ar  
    38    23    44 1   
    39    24    25 ar  
    40    24    45 1   
    41    25    46 1   
    42    26    27 1   
    43    26    31 1   
    44    27    28 1   
    45    27    47 1   
    46    27    48 1   
    47    28    29 1   
    48    28    33 1   
    49    28    49 1   
    50    29    30 1   
    51    29    50 1   
    52    29    51 1   
    53    30    31 1   
    54    30    32 1   
    55    30    52 1   
    56    31    53 1   
    57    31    54 1   
    58    32    55 1   
    59    32    56 1   
    60    32    57 1   
    61    33    58 1   
    62    33    59 1   
    63    33    60 1   
@<TRIPOS>SUBSTRUCTURE
     1 B83         1 TEMP              0 ****  ****    0 ROOT
