@<TRIPOS>MOLECULE
molecule
   70    74     1     0     0
SMALL
bcc


@<TRIPOS>ATOM
      1 S1           0.0000     0.0000     0.0000 sy         1 B84       1.425200
      2 O2           1.4210     0.0000     0.0000 o          1 B84      -0.639300
      3 O3          -0.7770     0.0000     1.1900 o          1 B84      -0.639300
      4 N4          -0.4680     1.3310    -0.8650 n3         1 B84      -0.820500
      5 C5          -1.7920     1.9390    -0.6580 c3         1 B84       0.236800
      6 C8          -1.6060     3.4410    -0.4200 c3         1 B84       0.152800
      7 N11         -0.8240     4.0160    -1.5230 n3         1 B84      -0.731600
      8 C12          0.5260     3.4410    -1.5740 c3         1 B84       0.152800
      9 C15          0.4310     1.9420    -1.8560 c3         1 B84       0.236800
     10 C18         -0.7700     5.4810    -1.4230 c3         1 B84       0.153100
     11 C22         -0.4980    -1.4200    -0.9180 ca         1 B84      -0.308500
     12 C23          0.3600    -1.9770    -1.8480 ca         1 B84      -0.027000
     13 C25         -0.0310    -3.0900    -2.5680 ca         1 B84      -0.130000
     14 C27         -1.2780    -3.6470    -2.3580 ca         1 B84      -0.020300
     15 C28         -2.1350    -3.0910    -1.4270 ca         1 B84      -0.130000
     16 C30         -1.7430    -1.9800    -0.7040 ca         1 B84      -0.027000
     17 C32         -1.7030    -4.8610    -3.1440 c3         1 B84      -0.099400
     18 C34         -2.0030    -6.0120    -2.1820 c3         1 B84      -0.069400
     19 C37         -0.7170    -6.4180    -1.4590 c3         1 B84      -0.076700
     20 C39         -1.0250    -7.4910    -0.4000 c3         1 B84      -0.081400
     21 C42         -0.2130    -8.7430    -0.7910 c3         1 B84      -0.083400
     22 C45          0.9520    -8.1880    -1.6480 c3         1 B84      -0.083400
     23 C48          0.2720    -7.0570    -2.4560 c3         1 B84      -0.081400
     24 C51         -2.9430    -4.5350    -3.9380 c          1 B84       0.659100
     25 O52         -3.3930    -3.4090    -3.9240 o          1 B84      -0.567100
     26 N53         -3.5500    -5.4950    -4.6630 ns         1 B84      -0.446400
     27 C55         -4.7400    -5.2210    -5.3170 cc         1 B84       0.444800
     28 S56         -5.5670    -3.6700    -5.2880 ss         1 B84      -0.068500
     29 C57         -6.8420    -4.3140    -6.3220 ca         1 B84       0.447600
     30 N58         -7.9390    -3.7410    -6.8120 nb         1 B84      -0.741000
     31 C59         -8.7850    -4.3980    -7.5810 ca         1 B84       0.667600
     32 C60         -8.5580    -5.7310    -7.9100 ca         1 B84      -0.259300
     33 C62         -7.4380    -6.3680    -7.4300 ca         1 B84      -0.020000
     34 C64         -6.5420    -5.6490    -6.6070 ca         1 B84      -0.012900
     35 N65         -5.3940    -6.0650    -6.0370 nd         1 B84      -0.628100
     36 O66         -9.8900    -3.7680    -8.0540 os         1 B84      -0.439100
     37 C67        -10.0680    -2.4000    -7.6790 c3         1 B84       0.135700
     38 H5          -2.2660     1.4900     0.2060 h1         1 B84       0.061950
     39 H5A         -2.4040     1.7840    -1.5390 h1         1 B84       0.061950
     40 H8          -2.5760     3.9220    -0.3770 h1         1 B84       0.042700
     41 H8A         -1.0780     3.5950     0.5140 h1         1 B84       0.042700
     42 H12          1.0210     3.5980    -0.6230 h1         1 B84       0.042700
     43 H12A         1.0910     3.9210    -2.3650 h1         1 B84       0.042700
     44 H15          0.0330     1.7850    -2.8510 h1         1 B84       0.061950
     45 H15A         1.4140     1.4950    -1.7770 h1         1 B84       0.061950
     46 H18         -1.7770     5.8800    -1.4250 h1         1 B84       0.033367
     47 H18A        -0.2720     5.7610    -0.5020 h1         1 B84       0.033367
     48 H18B        -0.2210     5.8800    -2.2670 h1         1 B84       0.033367
     49 H23          1.3370    -1.5410    -2.0130 ha         1 B84       0.150500
     50 H25          0.6410    -3.5260    -3.2970 ha         1 B84       0.138000
     51 H28         -3.1120    -3.5280    -1.2600 ha         1 B84       0.138000
     52 H30         -2.4150    -1.5440     0.0260 ha         1 B84       0.150500
     53 H32         -0.9080    -5.1510    -3.8190 hc         1 B84       0.083700
     54 H34         -2.3870    -6.8580    -2.7390 hc         1 B84       0.053200
     55 H34A        -2.7400    -5.6930    -1.4550 hc         1 B84       0.053200
     56 H37         -0.2610    -5.5560    -0.9890 hc         1 B84       0.066700
     57 H39         -2.0830    -7.7210    -0.4030 hc         1 B84       0.044200
     58 H39A        -0.7180    -7.1420     0.5790 hc         1 B84       0.044200
     59 H42          0.1710    -9.2350     0.0950 hc         1 B84       0.046950
     60 H42A        -0.8220    -9.4210    -1.3760 hc         1 B84       0.046950
     61 H45          1.7350    -7.7880    -1.0150 hc         1 B84       0.046950
     62 H45A         1.3370    -8.9530    -2.3110 hc         1 B84       0.046950
     63 H48          1.0070    -6.3280    -2.7780 hc         1 B84       0.044200
     64 H48A        -0.2610    -7.4680    -3.3050 hc         1 B84       0.044200
     65 HN53        -3.1160    -6.3910    -4.7700 hn         1 B84       0.346500
     66 H60         -9.2580    -6.2630    -8.5420 ha         1 B84       0.156000
     67 H62         -7.2470    -7.4050    -7.6770 ha         1 B84       0.155000
     68 H67        -10.1310    -2.3270    -6.6000 h1         1 B84       0.048367
     69 H67A        -9.2260    -1.8160    -8.0320 h1         1 B84       0.048367
     70 H67B       -10.9810    -2.0200    -8.1200 h1         1 B84       0.048367
@<TRIPOS>BOND
     1     1     2 2
     2     1     3 2
     3     1     4 1
     4     1    11 1
     5     4     5 1
     6     4     9 1
     7     5     6 1
     8     6     7 1
     9     7     8 1
    10     7    10 1
    11     8     9 1
    12    11    12 ar
    13    11    16 ar
    14    12    13 ar
    15    13    14 ar
    16    14    15 ar
    17    14    17 1
    18    15    16 ar
    19    17    18 1
    20    17    24 1
    21    18    19 1
    22    19    20 1
    23    19    23 1
    24    20    21 1
    25    21    22 1
    26    22    23 1
    27    24    25 2
    28    24    26 1
    29    26    27 1
    30    27    28 1
    31    27    35 2
    32    28    29 1
    33    29    30 ar
    34    29    34 ar
    35    30    31 ar
    36    31    32 ar
    37    31    36 1
    38    32    33 ar
    39    33    34 ar
    40    34    35 1
    41    36    37 1
    42     5    38 1
    43     5    39 1
    44     6    40 1
    45     6    41 1
    46     8    42 1
    47     8    43 1
    48     9    44 1
    49     9    45 1
    50    10    46 1
    51    10    47 1
    52    10    48 1
    53    12    49 1
    54    13    50 1
    55    15    51 1
    56    16    52 1
    57    17    53 1
    58    18    54 1
    59    18    55 1
    60    19    56 1
    61    20    57 1
    62    20    58 1
    63    21    59 1
    64    21    60 1
    65    22    61 1
    66    22    62 1
    67    23    63 1
    68    23    64 1
    69    26    65 1
    70    32    66 1
    71    33    67 1
    72    37    68 1
    73    37    69 1
    74    37    70 1
@<TRIPOS>SUBSTRUCTURE
     1 B84         1 TEMP              0 ****  ****    0 ROOT
