@<TRIPOS>MOLECULE
molecule
   18    18     1     0     0
SMALL
bcc


@<TRIPOS>ATOM
      1 C1           0.0000     0.0000     0.0000 ca         1 B85      -0.126000
      2 C2           1.3820     0.0000     0.0000 ca         1 B85      -0.145500
      3 C3           2.0740     0.0000     1.1980 ca         1 B85      -0.202000
      4 C4           1.3820     0.0000     2.3940 ca         1 B85      -0.145500
      5 C5          -0.0010     0.0020     2.3940 ca         1 B85      -0.126000
      6 C6          -0.6910     0.0070     1.1970 ca         1 B85       0.039700
      7 C7          -2.1990     0.0080     1.1960 c3         1 B85      -0.195300
      8 P8          -2.8050     1.7270     1.2030 p5         1 B85       1.025700
      9 O9          -2.2140     2.4640     0.0630 o          1 B85      -0.902833
     10 O10         -4.4100     1.7300     1.0700 o          1 B85      -0.902833
     11 O11         -2.3800     2.4410     2.5820 o          1 B85      -0.902833
     12 H1          -0.5410     0.0020    -0.9380 ha         1 B85       0.134000
     13 H2           1.9240    -0.0030    -0.9380 ha         1 B85       0.085500
     14 H3           3.1570    -0.0010     1.1990 ha         1 B85       0.078000
     15 H4           1.9230    -0.0020     3.3320 ha         1 B85       0.085500
     16 H5          -0.5430     0.0040     3.3320 ha         1 B85       0.134000
     17 H7          -2.5610    -0.5070     2.0770 hc         1 B85       0.032700
     18 H7A         -2.5600    -0.4990     0.3080 hc         1 B85       0.032700
@<TRIPOS>BOND
     1     6     1 ar
     2     2     1 ar
     3     1    12 1
     4     3     2 ar
     5     2    13 1
     6     4     3 ar
     7     3    14 1
     8     4     5 ar
     9     4    15 1
    10     5     6 ar
    11     5    16 1
    12     6     7 1
    13     8     7 1
    14     7    17 1
    15     7    18 1
    16     9     8 1
    17    11     8 1
    18     8    10 1
@<TRIPOS>SUBSTRUCTURE
     1 B85         1 TEMP              0 ****  ****    0 ROOT
