@<TRIPOS>MOLECULE
B85
   18    17     1     0     0
SMALL
bcc


@<TRIPOS>ATOM
      1 C1          0.1160   -0.3090    0.0500 ca        1 B85     -0.279000
      2 C2          1.4740   -0.5100   -0.0320 ca        1 B85     -0.075000
      3 C3          2.3080   -0.3510    1.0830 ca        1 B85     -0.374000
      4 C4          1.7240    0.0450    2.2930 ca        1 B85     -0.075000
      5 C5          0.3690    0.2530    2.4050 ca        1 B85     -0.279000
      6 C6         -0.5190    0.0700    1.2860 ca        1 B85      0.124000
      7 C7         -1.8770    0.2210    1.3960 c2        1 B85     -0.609000
      8 P8         -3.6140    2.0670    1.1440 p3        1 B85      2.461000
      9 O9         -2.8460    3.2700    0.7590 o         1 B85     -1.160667
     10 O10        -4.3500    1.3260    0.0920 o         1 B85     -1.160667
     11 O11        -4.0680    1.9310    2.5480 o         1 B85     -1.160667
     12 H1         -0.5220   -0.4230   -0.8350 ha        1 B85      0.094000
     13 H2          1.9240   -0.8020   -0.9940 ha        1 B85      0.054000
     14 H3          3.3860   -0.5190    1.0070 ha        1 B85      0.065000
     15 H4          2.3720    0.1910    3.1720 ha        1 B85      0.054000
     16 H5         -0.0710    0.5770    3.3570 ha        1 B85      0.094000
     17 H7         -2.5330   -0.0500    0.5630 ha        1 B85      0.114000
     18 H7A        -2.3380    0.3820    2.3760 ha        1 B85      0.114000
@<TRIPOS>BOND
     1    1    2 1   
     2    1    6 1   
     3    1   12 1   
     4    2    3 1   
     5    2   13 1   
     6    3    4 1   
     7    3   14 1   
     8    4    5 1   
     9    4   15 1   
    10    5    6 1   
    11    5   16 1   
    12    6    7 1   
    13    7   17 1   
    14    7   18 1   
    15    8    9 1   
    16    8   10 1   
    17    8   11 1   
@<TRIPOS>SUBSTRUCTURE
     1 B85         1 TEMP              0 ****  ****    0 ROOT
