@<TRIPOS>MOLECULE
B86
   30    31     1     0     0
SMALL
bcc


@<TRIPOS>ATOM
      1 C1           0.0000     0.0000     0.0000 cc         1 B86       0.248500
      2 N2           1.3260     0.0000     0.0000 nd         1 B86      -0.455100
      3 C3           2.0070     0.0000     1.1440 c          1 B86       0.666900
      4 N4           1.3720     0.0010     2.3310 n          1 B86       0.150000
      5 C5           0.0080     0.0000     2.3840 cd         1 B86      -0.032400
      6 C6          -0.6980     0.0010     1.2270 cc         1 B86      -0.139100
      7 N7          -0.6930     0.0050    -1.1900 nz         1 B86       0.200400
      8 F8          -2.0490     0.0010     1.2480 f          1 B86      -0.118500
      9 O9           3.2270    -0.0000     1.1170 o          1 B86      -0.558500
     10 C10          2.1490     0.0020     3.5740 c3         1 B86       0.200500
     11 O11          3.0980     1.0910     3.5730 os         1 B86      -0.368600
     12 C12          4.1020     0.7210     4.5420 c3         1 B86       0.167100
     13 C13          4.3280    -0.7920     4.3190 c3         1 B86       0.171100
     14 O13          4.5410    -1.4540     5.5670 oh         1 B86      -0.571800
     15 C14          3.0130    -1.2760     3.6680 c3         1 B86      -0.104400
     16 C15          5.3970     1.4950     4.2900 c3         1 B86       0.226400
     17 O16          5.1780     2.8840     4.5430 oh         1 B86      -0.586800
     18 H5          -0.5040     0.0010     3.3380 h4         1 B86       0.174000
     19 HN7         -1.2720    -0.8100    -1.2420 hn         1 B86       0.226133
     20 HN7A        -1.2640     0.8250    -1.2390 hn         1 B86       0.226133
     21 H10          1.4950     0.0760     4.4340 h2         1 B86       0.052700
     22 H12          3.7380     0.9010     5.5460 h1         1 B86       0.050700
     23 H13          5.1630    -0.9540     3.6490 h1         1 B86       0.031700
     24 HO13         5.1990    -2.1210     5.4600 ho         1 B86       0.406000
     25 H14          2.5290    -2.0140     4.2960 hc         1 B86       0.049700
     26 H14A         3.2050    -1.6750     2.6790 hc         1 B86       0.049700
     27 H15          5.7030     1.3600     3.2600 h1         1 B86       0.003700
     28 H15A         6.1730     1.1260     4.9490 h1         1 B86       0.003700
     29 HO16         5.9920     3.3520     4.4560 ho         1 B86       0.403000
     30 H73         -0.0450    -0.0020    -1.9530 hn         1 B86       0.226133
@<TRIPOS>BOND
     1     1     2 2   
     2     1     6 1   
     3     1     7 1   
     4     2     3 1   
     5     3     4 1   
     6     3     9 2   
     7     4     5 1   
     8     4    10 1   
     9     5     6 2   
    10     5    18 1   
    11     6     8 1   
    12     7    19 1   
    13     7    20 1   
    14     7    30 1   
    15    10    11 1   
    16    10    15 1   
    17    10    21 1   
    18    11    12 1   
    19    12    13 1   
    20    12    16 1   
    21    12    22 1   
    22    13    14 1   
    23    13    15 1   
    24    13    23 1   
    25    14    24 1   
    26    15    25 1   
    27    15    26 1   
    28    16    17 1   
    29    16    27 1   
    30    16    28 1   
    31    17    29 1   
@<TRIPOS>SUBSTRUCTURE
     1 B86         1 TEMP              0 ****  ****    0 ROOT
