@<TRIPOS>MOLECULE
molecule
   30    31     1     0     0
SMALL
bcc


@<TRIPOS>ATOM
      1 C1           0.0000     0.0000     0.0000 cc         1 B86       0.550500
      2 N2           1.3260     0.0000     0.0000 nd         1 B86      -0.610100
      3 C3           2.0070     0.0000     1.1440 c          1 B86       0.820900
      4 N4           1.3720     0.0010     2.3310 n          1 B86      -0.300000
      5 C5           0.0080     0.0000     2.3840 cd         1 B86       0.099600
      6 C6          -0.6980     0.0010     1.2270 cc         1 B86      -0.143100
      7 N7          -0.6930     0.0050    -1.1900 nz         1 B86      -0.740600
      8 F8          -2.0490     0.0010     1.2480 f          1 B86      -0.138500
      9 O9           3.2270    -0.0000     1.1170 o          1 B86      -0.513500
     10 C10          2.1490     0.0020     3.5740 c3         1 B86       0.287500
     11 O11          3.0980     1.0910     3.5730 os         1 B86      -0.379600
     12 C12          4.1020     0.7210     4.5420 c3         1 B86       0.138100
     13 C13          4.3280    -0.7920     4.3190 c3         1 B86       0.123100
     14 O13          4.5410    -1.4540     5.5670 oh         1 B86      -0.590800
     15 C14          3.0130    -1.2760     3.6680 c3         1 B86      -0.147400
     16 C15          5.3970     1.4950     4.2900 c3         1 B86       0.150400
     17 O16          5.1780     2.8840     4.5430 oh         1 B86      -0.600800
     18 H5          -0.5040     0.0010     3.3380 h4         1 B86       0.215000
     19 HN7         -1.2720    -0.8100    -1.2420 hn         1 B86       0.481467
     20 HN7A        -1.2640     0.8250    -1.2390 hn         1 B86       0.481467
     21 H10          1.4950     0.0760     4.4340 h2         1 B86       0.090700
     22 H12          3.7380     0.9010     5.5460 h1         1 B86       0.089700
     23 H13          5.1630    -0.9540     3.6490 h1         1 B86       0.068700
     24 HO13         5.1990    -2.1210     5.4600 ho         1 B86       0.421000
     25 H14          2.5290    -2.0140     4.2960 hc         1 B86       0.081700
     26 H14A         3.2050    -1.6750     2.6790 hc         1 B86       0.081700
     27 H15          5.7030     1.3600     3.2600 h1         1 B86       0.042700
     28 H15A         6.1730     1.1260     4.9490 h1         1 B86       0.042700
     29 HO16         5.9920     3.3520     4.4560 ho         1 B86       0.417000
     30 H73         -0.0450    -0.0020    -1.9530 hn         1 B86       0.481467
@<TRIPOS>BOND
     1     1     2 2
     2     1     6 1
     3     1     7 1
     4     2     3 1
     5     3     4 1
     6     3     9 2
     7     4     5 1
     8     4    10 1
     9     5     6 2
    10     6     8 1
    11    10    11 1
    12    10    15 1
    13    11    12 1
    14    12    13 1
    15    12    16 1
    16    13    14 1
    17    13    15 1
    18    16    17 1
    19     5    18 1
    20     7    19 1
    21     7    20 1
    22    10    21 1
    23    12    22 1
    24    13    23 1
    25    14    24 1
    26    15    25 1
    27    15    26 1
    28    16    27 1
    29    16    28 1
    30    17    29 1
    31    30     7 1
@<TRIPOS>SUBSTRUCTURE
     1 B86         1 TEMP              0 ****  ****    0 ROOT
