@<TRIPOS>MOLECULE
B87
   54    58     1     0     0
SMALL
bcc


@<TRIPOS>ATOM
      1 C1           0.0000     0.0000     0.0000 c3         1 B87      -0.033900
      2 C2           1.5430     0.0000     0.0000 c3         1 B87       0.054500
      3 N3           1.9790     0.0000     1.4040 n          1 B87      -0.170800
      4 C4           0.7860     0.0270     2.2690 c3         1 B87       0.054500
      5 C5          -0.3480    -0.5700     1.4000 c3         1 B87      -0.033900
      6 C6           3.2580    -0.0210     1.8280 c          1 B87       0.599100
      7 O7           4.1650    -0.0430     1.0240 o          1 B87      -0.630100
      8 C8           3.5620    -0.0180     3.3050 c3         1 B87       0.085800
      9 N9           5.0170    -0.0440     3.5060 n3         1 B87      -0.510600
     10 C10          5.3590     0.1960     4.9150 c3         1 B87       0.136800
     11 C11          6.8800     0.2400     5.0680 c3         1 B87       0.145800
     12 N12          7.4540    -1.0280     4.5990 nh         1 B87      -0.468300
     13 C13          7.1130    -1.2690     3.1890 c3         1 B87       0.145800
     14 C14          5.5910    -1.3130     3.0370 c3         1 B87       0.136800
     15 C15          8.8280    -1.0530     4.7880 ca         1 B87       0.533200
     16 C16          9.5730    -2.1680     4.4110 ca         1 B87      -0.364600
     17 C17         10.9520    -2.1420     4.6230 ca         1 B87       0.532100
     18 N18         11.4990    -1.0560     5.1760 nb         1 B87      -0.657000
     19 C19         10.7570    -0.0250     5.5170 ca         1 B87       0.662900
     20 N20          9.4530    -0.0100     5.3280 nb         1 B87      -0.682000
     21 C21         11.7920    -3.2960     4.2440 cc         1 B87      -0.084200
     22 S22         11.1800    -4.7680     3.5140 ss         1 B87      -0.209500
     23 C23         12.7870    -5.4810     3.4390 ca         1 B87       0.036900
     24 C24         13.7270    -4.5880     3.9640 ca         1 B87      -0.090800
     25 C25         13.1140    -3.3510     4.4070 cd         1 B87      -0.038200
     26 C26         13.2060    -6.7250     2.9580 ca         1 B87      -0.061000
     27 C27         14.5350    -7.0720     3.0010 ca         1 B87      -0.086000
     28 C28         15.4710    -6.1880     3.5220 ca         1 B87      -0.106000
     29 C29         15.0870    -4.9730     3.9950 ca         1 B87      -0.051000
     30 H1          -0.3820    -0.6470    -0.7810 hc         1 B87       0.024950
     31 H1A         -0.3820     1.0080    -0.1070 hc         1 B87       0.024950
     32 H2           1.9110     0.8890    -0.4990 h1         1 B87       0.020200
     33 H2A          1.9110    -0.8890    -0.4990 h1         1 B87       0.020200
     34 H4           0.5480     1.0460     2.5490 h1         1 B87       0.020200
     35 H4A          0.9470    -0.5850     3.1490 h1         1 B87       0.020200
     36 H5          -0.3030    -1.6520     1.3970 hc         1 B87       0.024950
     37 H5A         -1.3160    -0.2150     1.7310 hc         1 B87       0.024950
     38 H8           3.1180    -0.8920     3.7670 h1         1 B87       0.022700
     39 H8A          3.1510     0.8770     3.7560 h1         1 B87       0.022700
     40 H10          4.9380     1.1430     5.2310 h1         1 B87       0.022700
     41 H10A         4.9580    -0.6050     5.5240 h1         1 B87       0.022700
     42 H11          7.1330     0.3860     6.1110 h1         1 B87       0.031950
     43 H11A         7.2790     1.0560     4.4760 h1         1 B87       0.031950
     44 H13          7.5130    -0.4670     2.5800 h1         1 B87       0.031950
     45 H13A         7.5340    -2.2150     2.8730 h1         1 B87       0.031950
     46 H14          5.3370    -1.4590     1.9940 h1         1 B87       0.022700
     47 H14A         5.1930    -2.1290     3.6290 h1         1 B87       0.022700
     48 H16          9.0950    -3.0320     3.9660 ha         1 B87       0.146000
     49 H19         11.2340     0.8410     5.9610 h5         1 B87      -0.001900
     50 H25         13.6840    -2.5360     4.8350 ha         1 B87       0.139000
     51 H26         12.4800    -7.4190     2.5500 ha         1 B87       0.111000
     52 H27         14.8530    -8.0380     2.6270 ha         1 B87       0.106000
     53 H28         16.5170    -6.4700     3.5520 ha         1 B87       0.105000
     54 H29         15.8290    -4.2940     4.3980 ha         1 B87       0.106000
@<TRIPOS>BOND
     1     1     2 1   
     2     1     5 1   
     3     1    30 1   
     4     1    31 1   
     5     2     3 1   
     6     2    32 1   
     7     2    33 1   
     8     3     4 1   
     9     3     6 1   
    10     4     5 1   
    11     4    34 1   
    12     4    35 1   
    13     5    36 1   
    14     5    37 1   
    15     6     7 2   
    16     6     8 1   
    17     8     9 1   
    18     8    38 1   
    19     8    39 1   
    20     9    10 1   
    21     9    14 1   
    22    10    11 1   
    23    10    40 1   
    24    10    41 1   
    25    11    12 1   
    26    11    42 1   
    27    11    43 1   
    28    12    13 1   
    29    12    15 1   
    30    13    14 1   
    31    13    44 1   
    32    13    45 1   
    33    14    46 1   
    34    14    47 1   
    35    15    16 ar  
    36    15    20 ar  
    37    16    17 ar  
    38    16    48 1   
    39    17    18 ar  
    40    17    21 1   
    41    18    19 ar  
    42    19    20 ar  
    43    19    49 1   
    44    21    22 1   
    45    21    25 2   
    46    22    23 1   
    47    23    24 ar  
    48    23    26 ar  
    49    24    25 1   
    50    24    29 ar  
    51    25    50 1   
    52    26    27 ar  
    53    26    51 1   
    54    27    28 ar  
    55    27    52 1   
    56    28    29 ar  
    57    28    53 1   
    58    29    54 1   
@<TRIPOS>SUBSTRUCTURE
     1 B87         1 TEMP              0 ****  ****    0 ROOT
