@<TRIPOS>MOLECULE
B88
   27    26     1     0     0
SMALL
bcc


@<TRIPOS>ATOM
      1 O4         -0.0020    0.4510   -0.0730 o         1 B88     -0.890300
      2 P2          1.3660   -0.0720   -0.1610 p5        1 B88      1.523100
      3 O5          2.2830    0.9870   -0.9580 oh        1 B88     -0.849400
      4 C9          2.0910    0.0220    1.3910 c3        1 B88     -0.105700
      5 N1          3.5050   -0.2450    1.3240 n3        1 B88     -0.871800
      6 C12         1.6840    1.3790    1.9340 c3        1 B88     -0.125100
      7 C6          1.7200   -1.5500   -0.7120 c3        1 B88     -0.472600
      8 C7          0.8590   -1.9450   -1.9020 c3        1 B88     -0.135700
      9 C8         -0.0800   -3.1340   -1.5660 c         1 B88      0.913600
     10 O1         -0.9020   -3.5170   -2.4480 o         1 B88     -0.865300
     11 O6         -0.0090   -3.6840   -0.4230 o         1 B88     -0.865300
     12 C13         1.7000   -2.3130   -3.1110 c3        1 B88     -0.163400
     13 C14         2.6340   -1.2210   -3.6230 c         1 B88      0.893600
     14 O3          3.7850   -1.5540   -4.0410 o         1 B88     -0.883800
     15 O2          2.2520   -0.0040   -3.6590 o         1 B88     -0.883800
     16 HO5         2.3620    0.8690   -1.9150 ho        1 B88      0.517000
     17 H9          1.6470   -0.7680    2.0620 h1        1 B88      0.083700
     18 HN1         3.9010    0.2810    0.5630 hn        1 B88      0.335300
     19 HN1A        3.9590    0.0360    2.1730 hn        1 B88      0.335300
     20 H12         2.0800    1.5620    2.9600 hc        1 B88      0.040700
     21 H12A        2.0590    2.1780    1.2470 hc        1 B88      0.040700
     22 H12B        0.5670    1.4310    1.9490 hc        1 B88      0.040700
     23 H6          1.5780   -2.3610    0.0640 hc        1 B88      0.127200
     24 H6A         2.7980   -1.6440   -1.0170 hc        1 B88      0.127200
     25 H7          0.2010   -1.0730   -2.1790 hc        1 B88      0.051700
     26 H13         1.0010   -2.5850   -3.9460 hc        1 B88      0.040200
     27 H13A        2.3120   -3.2210   -2.8720 hc        1 B88      0.040200
@<TRIPOS>BOND
     1    1    2 2
     2    2    3 1
     3    2    4 1
     4    2    7 1
     5    3   16 1
     6    4    5 1
     7    4    6 1
     8    4   17 1
     9    5   18 1
    10    5   19 1
    11    6   20 1
    12    6   21 1
    13    6   22 1
    14    7    8 1
    15    7   23 1
    16    7   24 1
    17    8    9 1
    18    8   12 1
    19    8   25 1
    20    9   10 1
    21    9   11 1
    22   12   13 1
    23   12   26 1
    24   12   27 1
    25   13   14 1
    26   13   15 1
@<TRIPOS>SUBSTRUCTURE
     1 B88         1 TEMP              0 ****  ****    0 ROOT
