@<TRIPOS>MOLECULE
molecule
   47    48     1     0     0
SMALL
bcc


@<TRIPOS>ATOM
      1 CAA          0.0000     0.0000     0.0000 c3         1 B89      -0.084100
      2 OAC          0.4070     1.1460     3.3170 oh         1 B89      -0.465100
      3 ClAD         1.9340    -7.2140     0.6420 cl         1 B89      -0.128400
      4 CAE          2.3810    -5.7890     1.5280 c2         1 B89      -0.051600
      5 CAF          1.6130    -4.7260     1.4910 c2         1 B89      -0.167200
      6 CAG          1.5310     0.0000     0.0000 c3         1 B89      -0.146700
      7 CAH          2.0010    -3.4900     2.2590 c3         1 B89       0.190600
      8 CAI          5.5410     6.0910     5.2640 c3         1 B89       0.138900
      9 CAJ          3.5140     5.9610     6.5400 c3         1 B89       0.138900
     10 CAK          5.2250     4.7810     4.5380 c3         1 B89      -0.116400
     11 CAL          3.1170     4.6450     5.8660 c3         1 B89      -0.116400
     12 CAM          3.9770     3.2210     2.3880 c3         1 B89      -0.176400
     13 CAN          1.8610     3.0960     3.7000 c3         1 B89      -0.087200
     14 NAO          2.1550    -1.1160     2.0640 n2         1 B89      -0.436200
     15 OAP          4.9400     6.0730     6.5600 os         1 B89      -0.418600
     16 OAQ          1.8180    -2.3380     1.4340 os         1 B89      -0.206300
     17 CAR          3.5910     1.9230     1.7270 c          1 B89       0.591300
     18 CAS          1.5420     1.7970     3.0090 c2         1 B89       0.163900
     19 CAT          2.0320     0.0000     1.4210 ce         1 B89       0.471600
     20 CAU          2.3840     1.2720     2.0780 ce         1 B89      -0.311800
     21 CAV          3.7050     4.6080     4.4520 c3         1 B89      -0.068700
     22 CAW          3.3790     3.2630     3.7970 c3         1 B89      -0.057700
     23 HAA         -0.3610    -0.5570    -0.8560 hc         1 B89       0.036367
     24 HAAA        -0.3610     1.0200    -0.0540 hc         1 B89       0.036367
     25 HAAB        -0.3610    -0.4630     0.9100 hc         1 B89       0.036367
     26 HOAC        -0.2000     1.7450     3.7190 ho         1 B89       0.425000
     27 HAE          3.2940    -5.7770     2.1100 h4         1 B89       0.154000
     28 HAF          0.7000    -4.7380     0.9080 ha         1 B89       0.149000
     29 HAG          1.8920    -0.8850    -0.5110 hc         1 B89       0.063200
     30 HAGA         1.8920     0.8850    -0.5110 hc         1 B89       0.063200
     31 HAH          1.3790    -3.4030     3.1420 h1         1 B89       0.043700
     32 HAHA         3.0410    -3.5600     2.5550 h1         1 B89       0.043700
     33 HAI          6.6140     6.1960     5.3670 h1         1 B89       0.047950
     34 HAIA         5.1440     6.9230     4.6950 h1         1 B89       0.047950
     35 HAJ          3.1380     5.9730     7.5560 h1         1 B89       0.047950
     36 HAJA         3.0960     6.7910     5.9840 h1         1 B89       0.047950
     37 HAK          5.6420     4.8130     3.5380 hc         1 B89       0.053950
     38 HAKA         5.6520     3.9510     5.0880 hc         1 B89       0.053950
     39 HAL          3.5060     3.8140     6.4410 hc         1 B89       0.053950
     40 HALA         2.0370     4.5810     5.8100 hc         1 B89       0.053950
     41 HAM          3.5910     4.0500     1.8070 hc         1 B89       0.076200
     42 HAMA         5.0560     3.2870     2.4520 hc         1 B89       0.076200
     43 HAN          1.4350     3.0880     4.6960 hc         1 B89       0.067200
     44 HANA         1.4440     3.9180     3.1300 hc         1 B89       0.067200
     45 HAV          3.2830     5.4140     3.8650 hc         1 B89       0.052700
     46 HAW          3.7930     2.4560     4.3900 hc         1 B89       0.073700
     47 OAB          4.3200     1.4310     0.8900 o          1 B89      -0.525100
@<TRIPOS>BOND
     1     1     6 1
     2    47    17 2
     3     2    18 1
     4     3     4 1
     5     4     5 2
     6     5     7 1
     7     6    19 1
     8     7    16 1
     9     8    10 1
    10     8    15 1
    11     9    11 1
    12     9    15 1
    13    10    21 1
    14    11    21 1
    15    12    17 1
    16    12    22 1
    17    13    18 1
    18    13    22 1
    19    14    16 1
    20    14    19 2
    21    17    20 1
    22    18    20 2
    23    19    20 1
    24    21    22 1
    25     1    23 1
    26     1    24 1
    27     1    25 1
    28     2    26 1
    29     4    27 1
    30     5    28 1
    31     6    29 1
    32     6    30 1
    33     7    31 1
    34     7    32 1
    35     8    33 1
    36     8    34 1
    37     9    35 1
    38     9    36 1
    39    10    37 1
    40    10    38 1
    41    11    39 1
    42    11    40 1
    43    12    41 1
    44    12    42 1
    45    13    43 1
    46    13    44 1
    47    21    45 1
    48    22    46 1
@<TRIPOS>SUBSTRUCTURE
     1 B89         1 TEMP              0 ****  ****    0 ROOT
