@<TRIPOS>MOLECULE
B89
   47    49     1     0     0
SMALL
bcc


@<TRIPOS>ATOM
      1 CAA          0.0000     0.0000     0.0000 c3         1 B89      -0.107000
      2 OAC          0.4070     1.1460     3.3170 oh         1 B89      -0.202000
      3 ClAD         1.9340    -7.2140     0.6420 cl         1 B89      -0.001000
      4 CAE          2.3810    -5.7890     1.5280 c2         1 B89      -0.064000
      5 CAF          1.6130    -4.7260     1.4910 c2         1 B89      -0.299000
      6 CAG          1.5310     0.0000     0.0000 c3         1 B89      -0.086000
      7 CAH          2.0010    -3.4900     2.2590 DU         1 B89       0.253000
      8 CAI          5.5410     6.0910     5.2640 c3         1 B89       0.066500
      9 CAJ          3.5140     5.9610     6.5400 c3         1 B89       0.066500
     10 CAK          5.2250     4.7810     4.5380 c3         1 B89      -0.151500
     11 CAL          3.1170     4.6450     5.8660 c3         1 B89      -0.151500
     12 CAM          3.9770     3.2210     2.3880 c3         1 B89      -0.154000
     13 CAN          1.8610     3.0960     3.7000 c3         1 B89      -0.108000
     14 NAO          2.1550    -1.1160     2.0640 n2         1 B89      -0.032000
     15 OAP          4.9400     6.0730     6.5600 os         1 B89      -0.263000
     16 OAQ          1.8180    -2.3380     1.4340 os         1 B89      -0.229000
     17 CAR          3.5910     1.9230     1.7270 c2         1 B89       0.332000
     18 CAS          1.5420     1.7970     3.0090 c2         1 B89       0.134000
     19 CAT          2.0320     0.0000     1.4210 c2         1 B89       0.018000
     20 CAU          2.3840     1.2720     2.0780 c2         1 B89      -0.234000
     21 CAV          3.7050     4.6080     4.4520 c3         1 B89      -0.086000
     22 CAW          3.3790     3.2630     3.7970 c3         1 B89      -0.074000
     23 HAA         -0.3610     1.0200    -0.0580 hc         1 B89       0.042667
     24 HAAA        -0.3610    -0.4600     0.9120 hc         1 B89       0.042667
     25 HAAB        -0.3610    -0.5600    -0.8540 hc         1 B89       0.042667
     26 HOAC        -0.2040     1.7470     3.7100 ho         1 B89       0.201000
     27 HAE          1.6300    -6.4990     1.8510 h4         1 B89       0.124000
     28 HAF          1.4830    -4.6040     2.5600 DU         1 B89       0.080000
     29 HAG          1.8920    -0.8850    -0.5110 hc         1 B89       0.072500
     30 HAGA         1.8920     0.8850    -0.5110 hc         1 B89       0.072500
     31 HAH          1.3790    -3.4030     3.1420 ha         1 B89       0.041500
     32 HAHA         3.0410    -3.5600     2.5550 ha         1 B89       0.041500
     33 HAI          5.1440     6.9230     4.6950 h1         1 B89       0.047500
     34 HAIA         6.6140     6.1960     5.3670 h1         1 B89       0.047500
     35 HAJ          3.0960     6.7910     5.9840 h1         1 B89       0.047500
     36 HAJA         3.1380     5.9730     7.5560 h1         1 B89       0.047500
     37 HAK          5.6420     4.8130     3.5380 hc         1 B89       0.068000
     38 HAKA         5.6520     3.9510     5.0880 hc         1 B89       0.068000
     39 HAL          3.5060     3.8140     6.4410 hc         1 B89       0.068000
     40 HALA         2.0370     4.5800     5.8100 hc         1 B89       0.068000
     41 HAM          5.0560     3.2870     2.4510 hc         1 B89       0.085000
     42 HAMA         3.5910     4.0500     1.8070 hc         1 B89       0.085000
     43 HAN          1.4350     3.0880     4.6960 hc         1 B89       0.075500
     44 HANA         1.4440     3.9180     3.1300 hc         1 B89       0.075500
     45 HAV          3.2830     5.4140     3.8650 hc         1 B89       0.071000
     46 HAW          3.7930     2.4560     4.3900 hc         1 B89       0.086000
     47 OAB          4.3200     1.4310     0.8900 o          1 B89      -0.325000
@<TRIPOS>BOND
     1     1     6 1   
     2     1    23 1   
     3     1    24 1   
     4     1    25 1   
     5     2    18 1   
     6     2    26 1   
     7     3     4 1   
     8     4     5 1   
     9     4    27 1   
    10     5     7 1   
    11     5    28 1   
    12     6    19 1   
    13     6    29 1   
    14     6    30 1   
    15     7    16 1   
    16     7    28 1   
    17     7    31 1   
    18     7    32 1   
    19     8    10 1   
    20     8    15 1   
    21     8    33 1   
    22     8    34 1   
    23     9    11 1   
    24     9    15 1   
    25     9    35 1   
    26     9    36 1   
    27    10    21 1   
    28    10    37 1   
    29    10    38 1   
    30    11    21 1   
    31    11    39 1   
    32    11    40 1   
    33    12    17 1   
    34    12    22 1   
    35    12    41 1   
    36    12    42 1   
    37    13    18 1   
    38    13    22 1   
    39    13    43 1   
    40    13    44 1   
    41    14    16 1   
    42    14    19 1   
    43    17    20 1   
    44    17    47 1   
    45    18    20 1   
    46    19    20 1   
    47    21    22 1   
    48    21    45 1   
    49    22    46 1   
@<TRIPOS>SUBSTRUCTURE
     1 B89         1 TEMP              0 ****  ****    0 ROOT
