@<TRIPOS>MOLECULE
molecule
   30    31     1     0     0
SMALL
bcc


@<TRIPOS>ATOM
      1 CAC          0.0000     0.0000     0.0000 c3         1 B8E       0.140700
      2 OAD          1.4510     0.0000     0.0000 os         1 B8E      -0.433900
      3 CAE          2.0620     0.0000     1.1950 c          1 B8E       0.629100
      4 OAA          1.4040    -0.0000     2.2090 o          1 B8E      -0.535000
      5 CAF          3.5660    -0.0010     1.2730 c3         1 B8E      -0.145700
      6 CAG          3.9950    -0.0010     2.7180 cc         1 B8E       0.375600
      7 NAJ          4.1880     1.1110     3.3890 nd         1 B8E      -0.668000
      8 CAH          4.1960    -1.1340     3.3990 cd         1 B8E      -0.111700
      9 CAB          4.0350    -2.5320     2.8570 c3         1 B8E      -0.012800
     10 SAI          4.6820    -0.7130     5.0400 ss         1 B8E      -0.230300
     11 CAK          4.5510     0.9960     4.6340 cc         1 B8E       0.537900
     12 CAL          4.8200     2.1200     5.5560 ca         1 B8E      -0.125500
     13 CAM          5.2130     1.8690     6.8720 ca         1 B8E      -0.098500
     14 CAN          5.4610     2.9220     7.7270 ca         1 B8E      -0.132000
     15 CAQ          5.3230     4.2250     7.2840 ca         1 B8E      -0.117000
     16 CAP          4.9330     4.4820     5.9810 ca         1 B8E      -0.132000
     17 CAO          4.6870     3.4370     5.1140 ca         1 B8E      -0.098500
     18 H1          -0.3610     0.0280    -1.0210 h1         1 B8E       0.049033
     19 H2          -0.3610    -0.8980     0.4860 h1         1 B8E       0.049033
     20 H3          -0.3610     0.8700     0.5350 h1         1 B8E       0.049033
     21 H4           3.9530    -0.8860     0.7820 hc         1 B8E       0.085200
     22 H5           3.9540     0.8830     0.7820 hc         1 B8E       0.085200
     23 H6           4.6380    -2.6450     1.9640 hc         1 B8E       0.051367
     24 H7           4.3570    -3.2480     3.6030 hc         1 B8E       0.051367
     25 H8           2.9940    -2.7070     2.6150 hc         1 B8E       0.051367
     26 H9           5.3220     0.8490     7.2200 ha         1 B8E       0.143500
     27 H10          5.7670     2.7290     8.7480 ha         1 B8E       0.133500
     28 H11          5.5170     5.0490     7.9600 ha         1 B8E       0.131000
     29 H12          4.8290     5.5040     5.6400 ha         1 B8E       0.133500
     30 H13          4.3820     3.6390     4.0940 ha         1 B8E       0.143500
@<TRIPOS>BOND
     1    15    14 ar
     2    15    16 ar
     3    14    13 ar
     4    16    17 ar
     5    13    12 ar
     6    17    12 ar
     7    12    11 1
     8    11    10 1
     9    11     7 2
    10    10     8 1
    11     7     6 1
    12     6     8 2
    13     6     5 1
    14     8     9 1
    15     5     3 1
    16     2     1 1
    17     2     3 1
    18     3     4 2
    19     1    18 1
    20     1    19 1
    21     1    20 1
    22     5    21 1
    23     5    22 1
    24     9    23 1
    25     9    24 1
    26     9    25 1
    27    13    26 1
    28    14    27 1
    29    15    28 1
    30    16    29 1
    31    17    30 1
@<TRIPOS>SUBSTRUCTURE
     1 B8E         1 TEMP              0 ****  ****    0 ROOT
