@<TRIPOS>MOLECULE
B8J
   81    87     1     0     0
SMALL
bcc


@<TRIPOS>ATOM
      1 C1           0.0000     0.0000     0.0000 ca         1 B8J      -0.145400
      2 C14         -2.1770    -0.0010    -0.4440 c          1 B8J       0.579500
      3 C2           1.3860     0.0000     0.0000 ca         1 B8J      -0.094000
      4 C20         -0.6810     0.0000    -2.4520 c3         1 B8J       0.037700
      5 C22         -1.9760    -0.2710    -3.2220 c3         1 B8J      -0.048900
      6 C23         -2.5020    -1.6600    -2.8520 c3         1 B8J       0.134300
      7 C25         -0.2550    -2.4600    -2.4210 c3         1 B8J       0.134300
      8 C26          0.3380    -1.0950    -2.7790 c3         1 B8J      -0.048900
      9 C3           2.0750     0.0000     1.1970 ca         1 B8J      -0.094000
     10 C35         -1.0380    -5.0500    -3.5570 c3         1 B8J      -0.061400
     11 C37         -1.5830    -6.4620    -3.3350 c3         1 B8J      -0.020700
     12 C4           1.3840    -0.0000     2.3980 ca         1 B8J      -0.098000
     13 C42          0.3260    -8.7970    -5.3350 cc         1 B8J       0.425800
     14 C43          0.9940    -8.8630    -4.1040 cc         1 B8J      -0.348600
     15 C44          0.3760    -8.0190    -3.2430 cd         1 B8J      -0.221600
     16 C5           0.0040    -0.0010     2.4090 ca         1 B8J      -0.081000
     17 C50          0.8000    -7.7970    -1.8130 c3         1 B8J       0.043900
     18 C51          1.6980    -8.9610    -1.3760 c3         1 B8J       0.062000
     19 C53          2.1930    -9.7080    -3.7410 c3         1 B8J       0.122300
     20 C59          4.0000    -9.0530    -2.2160 c          1 B8J       0.662700
     21 C6          -0.6950     0.0050     1.2100 ca         1 B8J      -0.154400
     22 C63          4.9520    -9.1710    -3.3270 cc         1 B8J      -0.502200
     23 C66          5.8410    -9.1740    -5.3310 cc         1 B8J       0.236400
     24 C68          6.2700    -9.5200    -3.2420 cd         1 B8J       0.414200
     25 C74          0.6700    -9.5620    -6.5590 ca         1 B8J      -0.068500
     26 C76         -0.3380   -10.0100    -7.4100 ca         1 B8J      -0.103000
     27 C77         -0.0130   -10.7200    -8.5470 ca         1 B8J      -0.038500
     28 C78          1.3110   -10.9900    -8.8420 ca         1 B8J      -0.208300
     29 C79          2.3160   -10.5480    -8.0010 ca         1 B8J      -0.038500
     30 C80          2.0020    -9.8310    -6.8640 ca         1 B8J      -0.103000
     31 C87          1.6600   -11.7660   -10.0860 c3         1 B8J       0.640200
     32 F91          1.8440   -10.8810   -11.1530 f          1 B8J      -0.207300
     33 F93          2.8390   -12.4880    -9.8690 f          1 B8J      -0.207300
     34 F97          0.6200   -12.6520   -10.3900 f          1 B8J      -0.207300
     35 N13         -0.9560    -0.0000    -1.0130 n          1 B8J       0.056000
     36 N15         -2.0530     0.0070     0.8960 n          1 B8J       0.048000
     37 N24         -1.4910    -2.6720    -3.1850 n3         1 B8J      -0.542600
     38 N39         -0.6480    -7.4400    -3.8960 na         1 B8J       0.527400
     39 N41         -0.6650    -7.9370    -5.2070 nd         1 B8J      -0.633800
     40 N52          2.6820    -9.2330    -2.4340 n          1 B8J      -0.169800
     41 N65          4.6910    -8.9560    -4.6660 na         1 B8J       0.208100
     42 N67          6.7730    -9.5090    -4.4770 nd         1 B8J      -0.627000
     43 O61          4.4010    -8.7920    -1.0960 o          1 B8J      -0.634100
     44 O95         -3.2320    -0.0020    -1.0500 o          1 B8J      -0.726500
     45 H1           1.9290     0.0000    -0.9380 ha         1 B8J       0.117000
     46 H2          -0.2820     0.9630    -2.7480 h1         1 B8J       0.032700
     47 H3          -1.7780    -0.2330    -4.2860 hc         1 B8J       0.041950
     48 H4          -2.7150     0.4760    -2.9590 hc         1 B8J       0.041950
     49 H5          -3.4100    -1.8610    -3.4090 h1         1 B8J       0.024200
     50 H6          -2.7100    -1.6950    -1.7890 h1         1 B8J       0.024200
     51 H7          -0.4780    -2.4890    -1.3610 h1         1 B8J       0.024200
     52 H8           0.4580    -3.2370    -2.6670 h1         1 B8J       0.024200
     53 H9           1.2400    -0.9320    -2.2020 hc         1 B8J       0.041950
     54 H10          0.5690    -1.0690    -3.8370 hc         1 B8J       0.041950
     55 H11          3.1580     0.0000     1.1970 ha         1 B8J       0.108000
     56 H12         -2.1320    -4.2070    -1.9090 h1         1 B8J       0.010700
     57 H13         -2.9770    -4.1250    -3.4610 h1         1 B8J       0.010700
     58 H14         -0.0770    -4.9520    -3.0670 hc         1 B8J       0.036200
     59 H15         -0.9220    -4.8700    -4.6190 hc         1 B8J       0.036200
     60 H16         -2.5450    -6.5590    -3.8250 h1         1 B8J       0.040700
     61 H17         -1.6990    -6.6410    -2.2730 h1         1 B8J       0.040700
     62 H18          1.9300    -0.0000     3.3340 ha         1 B8J       0.108000
     63 H19         -0.5320    -0.0010     3.3500 ha         1 B8J       0.107000
     64 H20          1.3500    -6.8670    -1.7390 hc         1 B8J       0.030200
     65 H21         -0.0770    -7.7580    -1.1780 hc         1 B8J       0.030200
     66 H22          2.2350    -8.6590    -0.4850 h1         1 B8J       0.045700
     67 H23          1.0780    -9.8410    -1.2560 h1         1 B8J       0.045700
     68 H24          2.9670    -9.5890    -4.4890 h1         1 B8J       0.034200
     69 H25          1.9000   -10.7490    -3.6670 h1         1 B8J       0.034200
     70 H26          5.9720    -9.0870    -6.4030 h5         1 B8J       0.023100
     71 H27          6.8090    -9.7610    -2.3340 h4         1 B8J       0.017100
     72 H28         -1.3750    -9.7990    -7.1790 ha         1 B8J       0.115000
     73 H29         -0.7970   -11.0680    -9.2090 ha         1 B8J       0.119500
     74 H30          3.3520   -10.7600    -8.2380 ha         1 B8J       0.119500
     75 H31          2.7900    -9.4860    -6.2060 ha         1 B8J       0.115000
     76 H32         -3.0600     0.8520     2.5230 h1         1 B8J       0.019700
     77 H33         -4.0980     0.0600     1.3290 h1         1 B8J       0.019700
     78 H34         -3.1230    -0.9130     2.4390 h1         1 B8J       0.019700
     79 H36          3.8140    -8.6870    -5.0660 hn         1 B8J       0.157700
     80 C33         -2.0160    -4.0280    -2.9710 c3         1 B8J       0.161800
     81 C95         -3.1550     0.0010     1.8590 c3         1 B8J       0.084300
@<TRIPOS>BOND
     1     1     3 ar  
     2     1    21 ar  
     3     1    35 1   
     4     2    35 1   
     5     2    36 1   
     6     2    44 2   
     7     3     9 ar  
     8     3    45 1   
     9     4     5 1   
    10     4     8 1   
    11     4    35 1   
    12     4    46 1   
    13     5     6 1   
    14     5    47 1   
    15     5    48 1   
    16     6    37 1   
    17     6    49 1   
    18     6    50 1   
    19     7     8 1   
    20     7    37 1   
    21     7    51 1   
    22     7    52 1   
    23     8    53 1   
    24     8    54 1   
    25     9    12 ar  
    26     9    55 1   
    27    10    11 1   
    28    10    58 1   
    29    10    59 1   
    30    10    80 1   
    31    11    38 1   
    32    11    60 1   
    33    11    61 1   
    34    12    16 ar  
    35    12    62 1   
    36    13    14 1   
    37    13    25 1   
    38    13    39 2   
    39    14    15 2   
    40    14    19 1   
    41    15    17 1   
    42    15    38 1   
    43    16    21 ar  
    44    16    63 1   
    45    17    18 1   
    46    17    64 1   
    47    17    65 1   
    48    18    40 1   
    49    18    66 1   
    50    18    67 1   
    51    19    40 1   
    52    19    68 1   
    53    19    69 1   
    54    20    22 1   
    55    20    40 1   
    56    20    43 2   
    57    21    36 1   
    58    22    24 2   
    59    22    41 1   
    60    23    41 1   
    61    23    42 2   
    62    23    70 1   
    63    24    42 1   
    64    24    71 1   
    65    25    26 ar  
    66    25    30 ar  
    67    26    27 ar  
    68    26    72 1   
    69    27    28 ar  
    70    27    73 1   
    71    28    29 ar  
    72    28    31 1   
    73    29    30 ar  
    74    29    74 1   
    75    30    75 1   
    76    31    32 1   
    77    31    33 1   
    78    31    34 1   
    79    36    81 1   
    80    37    80 1   
    81    38    39 1   
    82    41    79 1   
    83    56    80 1   
    84    57    80 1   
    85    76    81 1   
    86    77    81 1   
    87    78    81 1   
@<TRIPOS>SUBSTRUCTURE
     1 B8J         1 TEMP              0 ****  ****    0 ROOT
