@<TRIPOS>MOLECULE
molecule
   81    87     1     0     0
SMALL
bcc


@<TRIPOS>ATOM
      1 C1           0.0000     0.0000     0.0000 ca         1 B8J      -0.001400
      2 C14         -2.1770    -0.0010    -0.4440 c          1 B8J       0.800500
      3 C2           1.3860     0.0000     0.0000 ca         1 B8J      -0.128000
      4 C20         -0.6810     0.0000    -2.4520 c3         1 B8J       0.135700
      5 C22         -1.9760    -0.2710    -3.2220 c3         1 B8J      -0.090400
      6 C23         -2.5020    -1.6600    -2.8520 c3         1 B8J       0.160800
      7 C25         -0.2550    -2.4600    -2.4210 c3         1 B8J       0.160800
      8 C26          0.3380    -1.0950    -2.7790 c3         1 B8J      -0.090400
      9 C3           2.0750     0.0000     1.1970 ca         1 B8J      -0.124000
     10 C35         -1.0380    -5.0500    -3.5570 c3         1 B8J      -0.108400
     11 C37         -1.5830    -6.4620    -3.3350 c3         1 B8J       0.069300
     12 C4           1.3840    -0.0000     2.3980 ca         1 B8J      -0.126000
     13 C42          0.3260    -8.7970    -5.3350 cc         1 B8J       0.389800
     14 C43          0.9940    -8.8630    -4.1040 cc         1 B8J      -0.335600
     15 C44          0.3760    -8.0190    -3.2430 cd         1 B8J      -0.046600
     16 C5           0.0040    -0.0010     2.4090 ca         1 B8J      -0.122000
     17 C50          0.8000    -7.7970    -1.8130 c3         1 B8J      -0.041100
     18 C51          1.6980    -8.9610    -1.3760 c3         1 B8J       0.119000
     19 C53          2.1930    -9.7080    -3.7410 c3         1 B8J       0.171300
     20 C59          4.0000    -9.0530    -2.2160 c          1 B8J       0.715700
     21 C6          -0.6950     0.0050     1.2100 ca         1 B8J      -0.007400
     22 C63          4.9520    -9.1710    -3.3270 cc         1 B8J      -0.309200
     23 C66          5.8410    -9.1740    -5.3310 cc         1 B8J       0.415400
     24 C68          6.2700    -9.5200    -3.2420 cd         1 B8J       0.398200
     25 C74          0.6700    -9.5620    -6.5590 ca         1 B8J      -0.076500
     26 C76         -0.3380   -10.0100    -7.4100 ca         1 B8J      -0.119000
     27 C77         -0.0130   -10.7200    -8.5470 ca         1 B8J      -0.079000
     28 C78          1.3110   -10.9900    -8.8420 ca         1 B8J      -0.176300
     29 C79          2.3160   -10.5480    -8.0010 ca         1 B8J      -0.079000
     30 C80          2.0020    -9.8310    -6.8640 ca         1 B8J      -0.119000
     31 C87          1.6600   -11.7660   -10.0860 c3         1 B8J       0.673200
     32 F91          1.8440   -10.8810   -11.1530 f          1 B8J      -0.221967
     33 F93          2.8390   -12.4880    -9.8690 f          1 B8J      -0.221967
     34 F97          0.6200   -12.6520   -10.3900 f          1 B8J      -0.221967
     35 N13         -0.9560    -0.0000    -1.0130 n          1 B8J      -0.354000
     36 N15         -2.0530     0.0070     0.8960 n          1 B8J      -0.359000
     37 N24         -1.4910    -2.6720    -3.1850 n3         1 B8J      -0.735600
     38 N39         -0.6480    -7.4400    -3.8960 na         1 B8J       0.087400
     39 N41         -0.6650    -7.9370    -5.2070 nd         1 B8J      -0.491800
     40 N52          2.6820    -9.2330    -2.4340 n          1 B8J      -0.498800
     41 N65          4.6910    -8.9560    -4.6660 na         1 B8J      -0.305900
     42 N67          6.7730    -9.5090    -4.4770 nd         1 B8J      -0.704000
     43 O61          4.4010    -8.7920    -1.0960 o          1 B8J      -0.595100
     44 O95         -3.2320    -0.0020    -1.0500 o          1 B8J      -0.673500
     45 H1           1.9290     0.0000    -0.9380 ha         1 B8J       0.139000
     46 H2          -0.2820     0.9630    -2.7480 h1         1 B8J       0.059700
     47 H3          -1.7780    -0.2330    -4.2860 hc         1 B8J       0.066700
     48 H4          -2.7150     0.4760    -2.9590 hc         1 B8J       0.066700
     49 H5          -3.4100    -1.8610    -3.4090 h1         1 B8J       0.045200
     50 H6          -2.7100    -1.6950    -1.7890 h1         1 B8J       0.045200
     51 H7          -0.4780    -2.4890    -1.3610 h1         1 B8J       0.045200
     52 H8           0.4580    -3.2370    -2.6670 h1         1 B8J       0.045200
     53 H9           1.2400    -0.9320    -2.2020 hc         1 B8J       0.066700
     54 H10          0.5690    -1.0690    -3.8370 hc         1 B8J       0.066700
     55 H11          3.1580     0.0000     1.1970 ha         1 B8J       0.138000
     56 H12         -2.1320    -4.2070    -1.9090 h1         1 B8J       0.035200
     57 H13         -2.9770    -4.1250    -3.4610 h1         1 B8J       0.035200
     58 H14         -0.0770    -4.9520    -3.0670 hc         1 B8J       0.064700
     59 H15         -0.9220    -4.8700    -4.6190 hc         1 B8J       0.064700
     60 H16         -2.5450    -6.5590    -3.8250 h1         1 B8J       0.068200
     61 H17         -1.6990    -6.6410    -2.2730 h1         1 B8J       0.068200
     62 H18          1.9300    -0.0000     3.3340 ha         1 B8J       0.137000
     63 H19         -0.5320    -0.0010     3.3500 ha         1 B8J       0.135000
     64 H20          1.3500    -6.8670    -1.7390 hc         1 B8J       0.065200
     65 H21         -0.0770    -7.7580    -1.1780 hc         1 B8J       0.065200
     66 H22          2.2350    -8.6590    -0.4850 h1         1 B8J       0.075700
     67 H23          1.0780    -9.8410    -1.2560 h1         1 B8J       0.075700
     68 H24          2.9670    -9.5890    -4.4890 h1         1 B8J       0.061200
     69 H25          1.9000   -10.7490    -3.6670 h1         1 B8J       0.061200
     70 H26          5.9720    -9.0870    -6.4030 h5         1 B8J       0.068100
     71 H27          6.8090    -9.7610    -2.3340 h4         1 B8J       0.061100
     72 H28         -1.3750    -9.7990    -7.1790 ha         1 B8J       0.140000
     73 H29         -0.7970   -11.0680    -9.2090 ha         1 B8J       0.150500
     74 H30          3.3520   -10.7600    -8.2380 ha         1 B8J       0.150500
     75 H31          2.7900    -9.4860    -6.2060 ha         1 B8J       0.140000
     76 H32         -3.0600     0.8520     2.5230 h1         1 B8J       0.052700
     77 H33         -4.0980     0.0600     1.3290 h1         1 B8J       0.052700
     78 H34         -3.1230    -0.9130     2.4390 h1         1 B8J       0.052700
     79 H36          3.8140    -8.6870    -5.0660 hn         1 B8J       0.316700
     80 C33         -2.0160    -4.0280    -2.9710 c3         1 B8J       0.167800
     81 C95         -3.1550     0.0010     1.8590 c3         1 B8J       0.116300
@<TRIPOS>BOND
     1    81    36 1
     2    16    12 ar
     3    16    21 ar
     4    34    31 1
     5    12     9 ar
     6    36    21 1
     7    36     2 1
     8    21     1 ar
     9    33    31 1
    10     9     3 ar
    11    31    32 1
    12    31    28 1
    13     2    44 2
    14     2    35 1
    15     1     3 ar
    16     1    35 1
    17    35     4 1
    18     5     4 1
    19     5     6 1
    20    28    27 ar
    21    28    29 ar
    22    27    26 ar
    23    29    30 ar
    24     4     8 1
    25     6    37 1
    26    26    25 ar
    27    30    25 ar
    28     8     7 1
    29    25    13 1
    30    37     7 1
    31    37    80 1
    32    13    39 2
    33    13    14 1
    34    80    10 1
    35    39    38 1
    36    10    11 1
    37    14    19 1
    38    14    15 2
    39    19    40 1
    40    38    15 1
    41    38    11 1
    42    15    17 1
    43    40    18 1
    44    40    20 1
    45    43    20 2
    46    17    18 1
    47    20    22 1
    48    22    41 1
    49    22    24 2
    50    41    23 1
    51    24    42 1
    52    23    42 2
    53     3    45 1
    54     4    46 1
    55     5    47 1
    56     5    48 1
    57     6    49 1
    58     6    50 1
    59     7    51 1
    60     7    52 1
    61     8    53 1
    62     8    54 1
    63     9    55 1
    64    80    56 1
    65    80    57 1
    66    10    58 1
    67    10    59 1
    68    11    60 1
    69    11    61 1
    70    12    62 1
    71    16    63 1
    72    17    64 1
    73    17    65 1
    74    18    66 1
    75    18    67 1
    76    19    68 1
    77    19    69 1
    78    23    70 1
    79    24    71 1
    80    26    72 1
    81    27    73 1
    82    29    74 1
    83    30    75 1
    84    81    76 1
    85    81    77 1
    86    81    78 1
    87    41    79 1
@<TRIPOS>SUBSTRUCTURE
     1 B8J         1 TEMP              0 ****  ****    0 ROOT
