@<TRIPOS>MOLECULE
B8L
   77    80     1     0     0
SMALL
bcc


@<TRIPOS>ATOM
      1 O1           0.0000     0.0000     0.0000 oh         1 B8L      -0.480100
      2 C1           1.3570     0.0000     0.0000 ca         1 B8L       0.169100
      3 C2           2.0510     0.0000     1.2040 ca         1 B8L      -0.195000
      4 C3           3.4270    -0.0000     1.2090 ca         1 B8L      -0.053000
      5 C4           4.1280    -0.0060    -0.0000 ca         1 B8L      -0.190600
      6 C5           3.4270    -0.0120    -1.2090 ca         1 B8L      -0.002000
      7 C6           2.0500    -0.0120    -1.2050 ca         1 B8L      -0.127300
      8 C7           5.6030    -0.0070    -0.0010 c          1 B8L       0.602700
      9 O7           6.2100    -0.0120    -1.0530 o          1 B8L      -0.648100
     10 N8           6.2780    -0.0000     1.1660 ns         1 B8L      -0.182900
     11 C8           7.7420    -0.0010     1.1660 c3         1 B8L      -0.000300
     12 C9           8.2460     0.7110     2.3960 c3         1 B8L       0.174100
     13 C10          9.5710     1.4540     2.1320 c3         1 B8L      -0.045400
     14 C11         10.5220     0.6180     1.2480 c3         1 B8L      -0.028400
     15 C12         10.4890    -0.8380     1.6410 c3         1 B8L       0.119800
     16 N13          9.5730    -1.5530     0.7330 n7         1 B8L      -0.550200
     17 O9           7.2460     1.6700     2.8300 os         1 B8L      -0.414900
     18 C14          8.2570    -1.4520     1.1770 c3         1 B8L       0.132800
     19 C15          7.0990     1.9430     4.1390 c          1 B8L       0.717700
     20 O15          7.8040     1.3880     4.9580 o          1 B8L      -0.587000
     21 C16          6.0790     2.9180     4.5820 ca         1 B8L      -0.128600
     22 C17          5.2730     3.5610     3.6410 ca         1 B8L      -0.064500
     23 C18          4.3200     4.4660     4.0530 ca         1 B8L      -0.061500
     24 C19          4.1690     4.7490     5.4120 ca         1 B8L      -0.143600
     25 C20          4.9780     4.1110     6.3530 ca         1 B8L      -0.061500
     26 C21          5.9280     3.2020     5.9410 ca         1 B8L      -0.064500
     27 C22          3.1480     5.7240     5.8550 c          1 B8L       0.656300
     28 O22          2.5250     6.3670     5.0320 o          1 B8L      -0.548100
     29 C23          2.8870     5.9180     7.2920 ca         1 B8L      -0.161600
     30 C24          3.0090     7.1880     7.8640 ca         1 B8L      -0.069000
     31 C26          2.7620     7.3610     9.2130 ca         1 B8L       0.107100
     32 O26          2.8800     8.5960     9.7710 os         1 B8L      -0.277900
     33 C27          2.3940     6.2780    10.0010 ca         1 B8L      -0.175000
     34 C28          2.2720     5.0200     9.4460 ca         1 B8L      -0.130000
     35 C29          2.5110     4.8300     8.0930 ca         1 B8L       0.121100
     36 O29          2.3900     3.5930     7.5480 oh         1 B8L      -0.491100
     37 C66          1.2940    -0.0180    -2.5080 c3         1 B8L       0.006600
     38 C71          1.6610    -1.2700    -3.3060 c3         1 B8L      -0.027400
     39 C72          1.6610     1.2280    -3.3170 c3         1 B8L       0.000900
     40 C81          0.8930    -1.2760    -4.6280 c3         1 B8L       0.001900
     41 C30          2.5660     8.4540    11.1580 c3         1 B8L       0.216700
     42 HO1         -0.3140    -0.5540     0.6950 ho         1 B8L       0.404000
     43 H2           1.5070     0.0040     2.1410 ha         1 B8L       0.112000
     44 H3           3.9660     0.0020     2.1480 ha         1 B8L       0.101000
     45 H5           3.9670    -0.0180    -2.1490 ha         1 B8L       0.136000
     46 HN8          5.7780    -0.0290     2.0330 hn         1 B8L       0.181500
     47 H8           8.1090     0.5050     0.2820 h1         1 B8L       0.088700
     48 H9           8.4050    -0.0180     3.1810 h1         1 B8L       0.041700
     49 H101         9.3560     2.3910     1.6310 hc         1 B8L       0.027200
     50 H102        10.0560     1.6570     3.0790 hc         1 B8L       0.027200
     51 H111        11.5320     0.9930     1.3620 hc         1 B8L       0.030200
     52 H112        10.2170     0.7120     0.2130 hc         1 B8L       0.030200
     53 H121        10.1340    -0.9300     2.6610 h1         1 B8L       0.015200
     54 H122        11.4840    -1.2580     1.5570 h1         1 B8L       0.015200
     55 H13          9.8360    -2.5180     0.6860 hn         1 B8L       0.253800
     56 H141         7.6240    -2.0520     0.5330 h1         1 B8L       0.009200
     57 H142         8.1990    -1.8360     2.1890 h1         1 B8L       0.009200
     58 H17          5.3910     3.3410     2.5870 ha         1 B8L       0.125000
     59 H18          3.6930     4.9630     3.3230 ha         1 B8L       0.125500
     60 H20          4.8600     4.3320     7.4070 ha         1 B8L       0.125500
     61 H21          6.5560     2.7070     6.6710 ha         1 B8L       0.125000
     62 H24          3.2220     8.0460     7.2380 ha         1 B8L       0.129000
     63 H27          2.2050     6.4200    11.0580 ha         1 B8L       0.135000
     64 H28          1.9830     4.1810    10.0670 ha         1 B8L       0.113000
     65 H29          1.5280     3.2540     7.7250 ho         1 B8L       0.406000
     66 H66          0.2290    -0.0170    -2.3070 hc         1 B8L       0.045700
     67 H711         1.4010    -2.1520    -2.7330 hc         1 B8L       0.017200
     68 H712         2.7250    -1.2710    -3.5070 hc         1 B8L       0.017200
     69 H721         0.8410     1.4850    -3.9770 hc         1 B8L       0.007367
     70 H722         1.8530     2.0530    -2.6420 hc         1 B8L       0.007367
     71 H723         2.5490     1.0280    -3.9050 hc         1 B8L       0.007367
     72 H811        -0.1110    -0.9030    -4.4650 hc         1 B8L       0.002033
     73 H812         1.4010    -0.6410    -5.3440 hc         1 B8L       0.002033
     74 H813         0.8440    -2.2870    -5.0130 hc         1 B8L       0.002033
     75 H301         1.5550     8.0800    11.2630 h1         1 B8L       0.003367
     76 H302         2.6470     9.4180    11.6460 h1         1 B8L       0.003367
     77 H303         3.2590     7.7580    11.6160 h1         1 B8L       0.003367
@<TRIPOS>BOND
     1     1     2 1   
     2     1    42 1   
     3     2     3 ar  
     4     2     7 ar  
     5     3     4 ar  
     6     3    43 1   
     7     4     5 ar  
     8     4    44 1   
     9     5     6 ar  
    10     5     8 1   
    11     6     7 ar  
    12     6    45 1   
    13     7    37 1   
    14     8     9 2   
    15     8    10 1   
    16    10    11 1   
    17    10    46 1   
    18    11    12 1   
    19    11    18 1   
    20    11    47 1   
    21    12    13 1   
    22    12    17 1   
    23    12    48 1   
    24    13    14 1   
    25    13    49 1   
    26    13    50 1   
    27    14    15 1   
    28    14    51 1   
    29    14    52 1   
    30    15    16 1   
    31    15    53 1   
    32    15    54 1   
    33    16    18 1   
    34    16    55 1   
    35    17    19 1   
    36    18    56 1   
    37    18    57 1   
    38    19    20 2   
    39    19    21 1   
    40    21    22 ar  
    41    21    26 ar  
    42    22    23 ar  
    43    22    58 1   
    44    23    24 ar  
    45    23    59 1   
    46    24    25 ar  
    47    24    27 1   
    48    25    26 ar  
    49    25    60 1   
    50    26    61 1   
    51    27    28 2   
    52    27    29 1   
    53    29    30 ar  
    54    29    35 ar  
    55    30    31 ar  
    56    30    62 1   
    57    31    32 1   
    58    31    33 ar  
    59    32    41 1   
    60    33    34 ar  
    61    33    63 1   
    62    34    35 ar  
    63    34    64 1   
    64    35    36 1   
    65    36    65 1   
    66    37    38 1   
    67    37    39 1   
    68    37    66 1   
    69    38    40 1   
    70    38    67 1   
    71    38    68 1   
    72    39    69 1   
    73    39    70 1   
    74    39    71 1   
    75    40    72 1   
    76    40    73 1   
    77    40    74 1   
    78    41    75 1   
    79    41    76 1   
    80    41    77 1   
@<TRIPOS>SUBSTRUCTURE
     1 B8L         1 TEMP              0 ****  ****    0 ROOT
