@<TRIPOS>MOLECULE
molecule
   47    46     1     0     0
SMALL
bcc


@<TRIPOS>ATOM
      1 C16          0.0000     0.0000     0.0000 c3         1 B8M      -0.092100
      2 C15          1.5300     0.0000     0.0000 c3         1 B8M      -0.082400
      3 C14          2.0400     0.0000     1.4430 c3         1 B8M      -0.090400
      4 C13          3.5700    -0.0000     1.4430 c3         1 B8M      -0.099400
      5 C12          4.0800    -0.0000     2.8840 c3         1 B8M       0.084800
      6 C11          5.5860    -0.0010     2.8850 c2         1 B8M      -0.244200
      7 C10          6.2520     0.9290     3.5630 ce         1 B8M      -0.166000
      8 C9           5.5220     1.8730     4.4240 ce         1 B8M      -0.058000
      9 C8           6.1720     2.8670     5.0190 c2         1 B8M      -0.258200
     10 C7           5.4260     3.8340     5.9010 c3         1 B8M      -0.034200
     11 C6           6.0820     3.8760     7.2830 c3         1 B8M      -0.075400
     12 C5           5.3240     4.8580     8.1780 c3         1 B8M      -0.083400
     13 C4           5.9810     4.9000     9.5600 c3         1 B8M      -0.079400
     14 C3           5.2220     5.8820    10.4550 c3         1 B8M      -0.082400
     15 C2           5.8790     5.9240    11.8360 c3         1 B8M      -0.081400
     16 C1           5.1210     6.9060    12.7320 c3         1 B8M       0.140400
     17 O            5.7350     6.9450    14.0220 oh         1 B8M      -0.611800
     18 H161        -0.3610    -0.8810     0.5170 hc         1 B8M       0.033367
     19 H162        -0.3610    -0.0080    -1.0210 hc         1 B8M       0.033367
     20 H163        -0.3610     0.8880     0.5040 hc         1 B8M       0.033367
     21 H151         1.8910     0.8840    -0.5110 hc         1 B8M       0.042700
     22 H152         1.8910    -0.8840    -0.5110 hc         1 B8M       0.042700
     23 H141         1.6790     0.8840     1.9530 hc         1 B8M       0.039200
     24 H142         1.6790    -0.8840     1.9530 hc         1 B8M       0.039200
     25 H131         3.9310    -0.8840     0.9320 hc         1 B8M       0.056700
     26 H132         3.9310     0.8850     0.9320 hc         1 B8M       0.056700
     27 H121         3.7180     0.8840     3.3950 hc         1 B8M       0.045200
     28 H122         3.7190    -0.8850     3.3950 hc         1 B8M       0.045200
     29 H11          5.0190    -0.4500     3.6910 ha         1 B8M       0.077000
     30 H10          5.7900     1.8230     3.1610 ha         1 B8M       0.111000
     31 H9           4.4550     1.7580     4.5730 ha         1 B8M       0.148000
     32 H8           7.2390     2.9830     4.8710 ha         1 B8M       0.143000
     33 H71C         4.3960     3.5120     6.0000 hc         1 B8M       0.039200
     34 H72C         5.4540     4.8220     5.4580 hc         1 B8M       0.039200
     35 H61C         7.1120     4.1990     7.1840 hc         1 B8M       0.045700
     36 H62C         6.0550     2.8880     7.7260 hc         1 B8M       0.045700
     37 H51C         5.3520     5.8460     7.7350 hc         1 B8M       0.039700
     38 H52C         4.2950     4.5360     8.2770 hc         1 B8M       0.039700
     39 H41C         7.0100     5.2220     9.4610 hc         1 B8M       0.044200
     40 H42C         5.9530     3.9120    10.0030 hc         1 B8M       0.044200
     41 H31C         5.2500     6.8700    10.0120 hc         1 B8M       0.040700
     42 H32C         4.1930     5.5590    10.5550 hc         1 B8M       0.040700
     43 H21C         5.8520     4.9360    12.2800 hc         1 B8M       0.054700
     44 H22C         6.9080     6.2470    11.7370 hc         1 B8M       0.054700
     45 H11C         5.1480     7.8950    12.2890 h1         1 B8M       0.018200
     46 H12C         4.0910     6.5840    12.8310 h1         1 B8M       0.018200
     47 H            5.2740     7.5580    14.5710 ho         1 B8M       0.401000
@<TRIPOS>BOND
     1     1     2 1
     2     2     3 1
     3     3     4 1
     4     4     5 1
     5     5     6 1
     6     6     7 2
     7     7     8 1
     8     8     9 2
     9     9    10 1
    10    10    11 1
    11    11    12 1
    12    12    13 1
    13    13    14 1
    14    14    15 1
    15    15    16 1
    16    16    17 1
    17     1    18 1
    18     1    19 1
    19     1    20 1
    20     2    21 1
    21     2    22 1
    22     3    23 1
    23     3    24 1
    24     4    25 1
    25     4    26 1
    26     5    27 1
    27     5    28 1
    28     6    29 1
    29     7    30 1
    30     8    31 1
    31     9    32 1
    32    10    33 1
    33    10    34 1
    34    11    35 1
    35    11    36 1
    36    12    37 1
    37    12    38 1
    38    13    39 1
    39    13    40 1
    40    14    41 1
    41    14    42 1
    42    15    43 1
    43    15    44 1
    44    16    45 1
    45    16    46 1
    46    17    47 1
@<TRIPOS>SUBSTRUCTURE
     1 B8M         1 TEMP              0 ****  ****    0 ROOT
