@<TRIPOS>MOLECULE
B8M
   47    46     1     0     0
SMALL
bcc


@<TRIPOS>ATOM
      1 C16         1.8460   -0.7210   -2.2320 c3        1 B8M     -0.093100
      2 C15         1.8740   -0.9970   -0.7510 c3        1 B8M     -0.080400
      3 C14         2.5140    0.1410    0.0150 c3        1 B8M     -0.079400
      4 C13         2.5390   -0.1410    1.5020 c3        1 B8M     -0.078400
      5 C12         3.1800    1.0010    2.2640 c3        1 B8M     -0.052200
      6 C11         3.2160    0.7480    3.7230 c2        1 B8M     -0.152200
      7 C10         3.7210    1.5910    4.6350 ce        1 B8M     -0.146000
      8 C9          4.3090    2.8780    4.3320 ce        1 B8M     -0.145000
      9 C8          4.8070    3.7250    5.2450 c2        1 B8M     -0.153200
     10 C7          4.8330    3.4760    6.7050 c3        1 B8M     -0.052200
     11 C6          5.4520    4.6300    7.4690 c3        1 B8M     -0.078400
     12 C5          5.4660    4.3520    8.9570 c3        1 B8M     -0.079400
     13 C4          6.0820    5.5030    9.7230 c3        1 B8M     -0.078400
     14 C3          6.0970    5.2270   11.2110 c3        1 B8M     -0.078400
     15 C2          6.7120    6.3790   11.9730 c3        1 B8M     -0.084400
     16 C1          6.7210    6.0900   13.4640 c3        1 B8M      0.131400
     17 O           7.3090    7.2120   14.1030 oh        1 B8M     -0.601800
     18 H161        1.2640    0.2080   -2.4500 hc        1 B8M      0.032700
     19 H162        1.3700   -1.5710   -2.7770 hc        1 B8M      0.032700
     20 H163        2.8820   -0.5840   -2.6270 hc        1 B8M      0.032700
     21 H151        2.4410   -1.9450   -0.5550 hc        1 B8M      0.038700
     22 H152        0.8270   -1.1560   -0.3780 hc        1 B8M      0.038700
     23 H141        1.9470    1.0900   -0.1790 hc        1 B8M      0.039700
     24 H142        3.5610    0.3000   -0.3560 hc        1 B8M      0.039700
     25 H131        1.4920   -0.3000    1.8720 hc        1 B8M      0.041700
     26 H132        3.1070   -1.0890    1.6950 hc        1 B8M      0.041700
     27 H121        2.6120    1.9500    2.0600 hc        1 B8M      0.050700
     28 H122        4.2270    1.1610    1.8840 hc        1 B8M      0.050700
     29 H11         2.7870   -0.2140    4.0510 ha        1 B8M      0.121000
     30 H10         3.7010    1.3110    5.7040 ha        1 B8M      0.121000
     31 H9          4.3350    3.1550    3.2630 ha        1 B8M      0.121000
     32 H8          5.2370    4.6870    4.9170 ha        1 B8M      0.121000
     33 H71C        5.4120    2.5360    6.9160 hc        1 B8M      0.050700
     34 H72C        3.7860    3.3030    7.0760 hc        1 B8M      0.050700
     35 H61C        6.5000    4.8010    7.1080 hc        1 B8M      0.042200
     36 H62C        4.8730    5.5690    7.2670 hc        1 B8M      0.042200
     37 H51C        6.0450    3.4130    9.1600 hc        1 B8M      0.039700
     38 H52C        4.4180    4.1790    9.3180 hc        1 B8M      0.039700
     39 H41C        5.5040    6.4430    9.5210 hc        1 B8M      0.042700
     40 H42C        7.1310    5.6770    9.3630 hc        1 B8M      0.042700
     41 H31C        6.6760    4.2880   11.4140 hc        1 B8M      0.039700
     42 H32C        5.0480    5.0530   11.5710 hc        1 B8M      0.039700
     43 H21C        7.7630    6.5580   11.6260 hc        1 B8M      0.055700
     44 H22C        6.1360    7.3220   11.7840 hc        1 B8M      0.055700
     45 H11C        5.6740    5.9390   13.8440 h1        1 B8M      0.019700
     46 H12C        7.3210    5.1660   13.6840 h1        1 B8M      0.019700
     47 H           7.3110    7.0210   15.0470 ho        1 B8M      0.398000
@<TRIPOS>BOND
     1    1    2 1   
     2    1   18 1   
     3    1   19 1   
     4    1   20 1   
     5    2    3 1   
     6    2   21 1   
     7    2   22 1   
     8    3    4 1   
     9    3   23 1   
    10    3   24 1   
    11    4    5 1   
    12    4   25 1   
    13    4   26 1   
    14    5    6 1   
    15    5   27 1   
    16    5   28 1   
    17    6    7 2   
    18    6   29 1   
    19    7    8 1   
    20    7   30 1   
    21    8    9 2   
    22    8   31 1   
    23    9   10 1   
    24    9   32 1   
    25   10   11 1   
    26   10   33 1   
    27   10   34 1   
    28   11   12 1   
    29   11   35 1   
    30   11   36 1   
    31   12   13 1   
    32   12   37 1   
    33   12   38 1   
    34   13   14 1   
    35   13   39 1   
    36   13   40 1   
    37   14   15 1   
    38   14   41 1   
    39   14   42 1   
    40   15   16 1   
    41   15   43 1   
    42   15   44 1   
    43   16   17 1   
    44   16   45 1   
    45   16   46 1   
    46   17   47 1   
@<TRIPOS>SUBSTRUCTURE
     1 B8M         1 TEMP              0 ****  ****    0 ROOT
