@<TRIPOS>MOLECULE
molecule
   37    39     1     0     0
SMALL
bcc


@<TRIPOS>ATOM
      1 C4           0.0000     0.0000     0.0000 ca         1 B8P       0.327300
      2 C2          -2.6920     0.0010     0.1090 ca         1 B8P       0.351300
      3 N1          -2.0330     0.0060     1.2430 nb         1 B8P      -0.632000
      4 C6           2.0800     0.0000     1.1830 ca         1 B8P      -0.129000
      5 C5           1.4050     0.0000     0.0000 ca         1 B8P      -0.171300
      6 O2          -6.8200    -0.3930     0.1430 o          1 B8P      -0.850800
      7 C16         -6.2170    -1.4400     0.1370 c          1 B8P       0.892600
      8 O1          -6.8890    -2.6020     0.1430 o          1 B8P      -0.850800
      9 C           -4.7100    -1.4410     0.1250 c3         1 B8P      -0.179400
     10 C1          -4.2000     0.0020     0.1220 c3         1 B8P      -0.114700
     11 C9          -0.6950     0.0050     1.2350 ca         1 B8P       0.275300
     12 C8           0.0370     0.0110     2.4350 ca         1 B8P      -0.144300
     13 C7           1.3960     0.0110     2.3970 ca         1 B8P      -0.148000
     14 N           -0.6900     0.0000    -1.1470 nb         1 B8P      -0.759000
     15 C3          -2.0070     0.0010    -1.1170 ca         1 B8P       0.553300
     16 O           -2.7070    -0.0050    -2.2780 os         1 B8P      -0.422100
     17 C10         -1.9510    -0.0040    -3.4910 c3         1 B8P       0.099100
     18 C11         -2.8910    -0.0110    -4.6680 ca         1 B8P       0.413600
     19 N2          -2.4020    -0.0170    -5.8930 nb         1 B8P      -0.702000
     20 C15         -3.1860    -0.0230    -6.9540 ca         1 B8P       0.410200
     21 C14         -4.5610    -0.0240    -6.8160 ca         1 B8P      -0.263300
     22 C13         -5.1120    -0.0170    -5.5430 ca         1 B8P      -0.090000
     23 C12         -4.2560    -0.0160    -4.4530 ca         1 B8P      -0.214300
     24 H1           3.1630     0.0000     1.1790 ha         1 B8P       0.121000
     25 H2           1.9490    -0.0090    -0.9370 ha         1 B8P       0.139000
     26 H4          -4.3420    -1.9520     1.0060 hc         1 B8P       0.037700
     27 H5          -4.3570    -1.9510    -0.7630 hc         1 B8P       0.037700
     28 H6          -4.5530     0.5120     1.0100 hc         1 B8P       0.072200
     29 H7          -4.5680     0.5140    -0.7590 hc         1 B8P       0.072200
     30 H8          -0.4810     0.0190     3.3870 ha         1 B8P       0.146000
     31 H9           1.9560     0.0110     3.3240 ha         1 B8P       0.123000
     32 H10         -1.3220    -0.8850    -3.5250 h1         1 B8P       0.065700
     33 H11         -1.3310     0.8840    -3.5290 h1         1 B8P       0.065700
     34 H12         -2.7480    -0.0280    -7.9440 h4         1 B8P       0.012100
     35 H13         -5.2000    -0.0270    -7.6900 ha         1 B8P       0.129000
     36 H14         -6.1860    -0.0200    -5.4050 ha         1 B8P       0.146000
     37 H15         -4.6530    -0.0110    -3.4450 ha         1 B8P       0.181000
@<TRIPOS>BOND
     1    12    13 ar
     2    12    11 ar
     3    13     4 ar
     4     3    11 ar
     5     3     2 ar
     6     6     7 1
     7    11     1 ar
     8     4     5 ar
     9     9     7 1
    10     9    10 1
    11     7     8 1
    12     2    10 1
    13     2    15 ar
    14     1     5 ar
    15     1    14 ar
    16    15    14 ar
    17    15    16 1
    18    16    17 1
    19    17    18 1
    20    19    18 ar
    21    19    20 ar
    22    18    23 ar
    23    20    21 ar
    24    23    22 ar
    25    21    22 ar
    26     4    24 1
    27     5    25 1
    28     9    26 1
    29     9    27 1
    30    10    28 1
    31    10    29 1
    32    12    30 1
    33    13    31 1
    34    17    32 1
    35    17    33 1
    36    20    34 1
    37    21    35 1
    38    22    36 1
    39    23    37 1
@<TRIPOS>SUBSTRUCTURE
     1 B8P         1 TEMP              0 ****  ****    0 ROOT
