@<TRIPOS>MOLECULE
B8S
   79    84     1     0     0
SMALL
bcc


@<TRIPOS>ATOM
      1 C94          0.0000     0.0000     0.0000 c3         1 B8S       0.084300
      2 N13          1.4650     0.0000     0.0000 n          1 B8S       0.046000
      3 C14          2.2520     0.0000     1.0930 c          1 B8S       0.583500
      4 O90          1.8560     0.0030     2.2420 o          1 B8S      -0.720500
      5 N15          3.5460    -0.0010     0.7180 n          1 B8S       0.056000
      6 C3           3.6000    -0.0030    -0.6740 ca         1 B8S      -0.134400
      7 C2           4.6460    -0.0050    -1.5840 ca         1 B8S      -0.095000
      8 C1           4.3760    -0.0060    -2.9400 ca         1 B8S      -0.031600
      9 Cl12         5.6850    -0.0090    -4.0820 cl         1 B8S      -0.020400
     10 C6           3.0670    -0.0060    -3.3920 ca         1 B8S      -0.098000
     11 C5           2.0200    -0.0040    -2.4910 ca         1 B8S      -0.071000
     12 C4           2.2810    -0.0080    -1.1290 ca         1 B8S      -0.153400
     13 C20          4.6990    -0.0000     1.6220 c3         1 B8S       0.037700
     14 C22          5.7130     1.0480     1.1560 c3         1 B8S      -0.052900
     15 C23          5.0710     2.4360     1.2200 c3         1 B8S       0.138300
     16 N24          4.6470     2.7170     2.5980 n3         1 B8S      -0.542600
     17 C33          4.1520     4.0940     2.7260 c3         1 B8S       0.163800
     18 C35          3.9570     4.4300     4.2060 c3         1 B8S      -0.056400
     19 C37          3.4400     5.8640     4.3390 c3         1 B8S       0.023000
     20 N39          3.2530     6.1870     5.7560 n          1 B8S       0.261200
     21 N45          2.1190     5.9440     6.3050 nc         1 B8S      -0.501300
     22 C44          1.8700     6.2010     7.5600 cd         1 B8S       0.343500
     23 C43          2.8550     6.7650     8.3810 cd         1 B8S      -0.150600
     24 C42          4.0950     7.0410     7.8200 cc         1 B8S      -0.140400
     25 C41          4.2780     6.7240     6.4460 c          1 B8S       0.561700
     26 O88          5.3460     6.9380     5.8980 o          1 B8S      -0.676500
     27 C52          5.1870     7.6380     8.6230 ca         1 B8S      -0.022800
     28 C54          6.3530     6.9140     8.8670 ca         1 B8S      -0.049000
     29 C55          7.3670     7.4760     9.6150 ca         1 B8S      -0.099000
     30 C56          7.2280     8.7560    10.1230 ca         1 B8S      -0.024600
     31 Cl16         8.5080     9.4570    11.0640 cl         1 B8S      -0.015400
     32 C57          6.0720     9.4790     9.8840 ca         1 B8S      -0.124300
     33 C58          5.0540     8.9300     9.1330 ca         1 B8S      -0.063000
     34 C65          5.9280    10.8730    10.4410 c3         1 B8S       0.109300
     35 N67          5.6640    10.7990    11.8810 ns         1 B8S      -0.197900
     36 C69          5.4980    11.9300    12.5930 c          1 B8S       0.597700
     37 O86          5.5680    13.0110    12.0440 o          1 B8S      -0.647100
     38 C71          5.2310    11.8550    14.0450 ca         1 B8S      -0.169600
     39 C77          5.1550    10.6140    14.6810 ca         1 B8S      -0.033500
     40 C76          4.9110    10.5510    16.0360 ca         1 B8S      -0.144500
     41 C75          4.7410    11.7160    16.7680 ca         1 B8S       0.125900
     42 F84          4.5020    11.6480    18.0950 f          1 B8S      -0.125900
     43 C74          4.8150    12.9500    16.1420 ca         1 B8S      -0.144500
     44 C73          5.0590    13.0260    14.7870 ca         1 B8S      -0.033500
     45 C25          3.6380     1.7510     3.0510 c3         1 B8S       0.138300
     46 C26          4.2370     0.3420     3.0410 c3         1 B8S      -0.052900
     47 H1          -0.3610     0.9300    -0.4230 h1         1 B8S       0.020700
     48 H2          -0.3610    -0.8310    -0.5930 h1         1 B8S       0.020700
     49 H3          -0.3610    -0.0980     1.0170 h1         1 B8S       0.020700
     50 H4           5.6670    -0.1050    -1.2360 ha         1 B8S       0.130000
     51 H5           2.8630    -0.0070    -4.4560 ha         1 B8S       0.119000
     52 H6           0.9970    -0.0040    -2.8480 ha         1 B8S       0.110000
     53 H7           5.1660    -0.9780     1.6210 h1         1 B8S       0.031700
     54 H8           6.5810     1.0220     1.8040 hc         1 B8S       0.043200
     55 H9           6.0100     0.8350     0.1360 hc         1 B8S       0.043200
     56 H10          5.7920     3.1810     0.9080 h1         1 B8S       0.022700
     57 H11          4.2080     2.4640     0.5660 h1         1 B8S       0.022700
     58 H13          3.2070     4.1880     2.2060 h1         1 B8S       0.009700
     59 H14          4.8720     4.7780     2.2920 h1         1 B8S       0.009700
     60 H15          3.2380     3.7460     4.6400 hc         1 B8S       0.037700
     61 H16          4.9030     4.3370     4.7260 hc         1 B8S       0.037700
     62 H17          4.1590     6.5490     3.9050 h1         1 B8S       0.049200
     63 H18          2.4940     5.9570     3.8200 h1         1 B8S       0.049200
     64 H19          0.8940     5.9750     7.9710 h4         1 B8S       0.008800
     65 H20          2.6540     6.9820     9.4230 ha         1 B8S       0.121000
     66 H21          6.4630     5.9120     8.4700 ha         1 B8S       0.116000
     67 H22          8.2740     6.9140     9.8060 ha         1 B8S       0.118000
     68 H23          4.1500     9.4970     8.9480 ha         1 B8S       0.115000
     69 H24          6.8430    11.4270    10.2700 h1         1 B8S       0.036700
     70 H25          5.1040    11.3750     9.9480 h1         1 B8S       0.036700
     71 H26          5.5640     9.9080    12.3260 hn         1 B8S       0.182500
     72 H27          5.2880     9.7030    14.1100 ha         1 B8S       0.119000
     73 H28          4.8520     9.5880    16.5300 ha         1 B8S       0.122000
     74 H29          4.6820    13.8570    16.7190 ha         1 B8S       0.122000
     75 H30          5.1170    13.9910    14.2990 ha         1 B8S       0.119000
     76 H31          2.7840     1.7840     2.3850 h1         1 B8S       0.022700
     77 H32          3.3260     2.0020     4.0580 h1         1 B8S       0.022700
     78 H33          5.0850     0.3070     3.7140 hc         1 B8S       0.043200
     79 H34          3.4860    -0.3710     3.3580 hc         1 B8S       0.043200
@<TRIPOS>BOND
     1     1     2 1   
     2     1    47 1   
     3     1    48 1   
     4     1    49 1   
     5     2     3 1   
     6     2    12 1   
     7     3     4 2   
     8     3     5 1   
     9     5     6 1   
    10     5    13 1   
    11     6     7 ar  
    12     6    12 ar  
    13     7     8 ar  
    14     7    50 1   
    15     8     9 1   
    16     8    10 ar  
    17    10    11 ar  
    18    10    51 1   
    19    11    12 ar  
    20    11    52 1   
    21    13    14 1   
    22    13    46 1   
    23    13    53 1   
    24    14    15 1   
    25    14    54 1   
    26    14    55 1   
    27    15    16 1   
    28    15    56 1   
    29    15    57 1   
    30    16    17 1   
    31    16    45 1   
    32    17    18 1   
    33    17    58 1   
    34    17    59 1   
    35    18    19 1   
    36    18    60 1   
    37    18    61 1   
    38    19    20 1   
    39    19    62 1   
    40    19    63 1   
    41    20    21 1   
    42    20    25 1   
    43    21    22 2   
    44    22    23 1   
    45    22    64 1   
    46    23    24 2   
    47    23    65 1   
    48    24    25 1   
    49    24    27 1   
    50    25    26 2   
    51    27    28 ar  
    52    27    33 ar  
    53    28    29 ar  
    54    28    66 1   
    55    29    30 ar  
    56    29    67 1   
    57    30    31 1   
    58    30    32 ar  
    59    32    33 ar  
    60    32    34 1   
    61    33    68 1   
    62    34    35 1   
    63    34    69 1   
    64    34    70 1   
    65    35    36 1   
    66    35    71 1   
    67    36    37 2   
    68    36    38 1   
    69    38    39 ar  
    70    38    44 ar  
    71    39    40 ar  
    72    39    72 1   
    73    40    41 ar  
    74    40    73 1   
    75    41    42 1   
    76    41    43 ar  
    77    43    44 ar  
    78    43    74 1   
    79    44    75 1   
    80    45    46 1   
    81    45    76 1   
    82    45    77 1   
    83    46    78 1   
    84    46    79 1   
@<TRIPOS>SUBSTRUCTURE
     1 B8S         1 TEMP              0 ****  ****    0 ROOT
