@<TRIPOS>MOLECULE
B8V
   92    97     1     0     0
SMALL
bcc


@<TRIPOS>ATOM
      1 C1           0.0000     0.0000     0.0000 ca         1 B8V      -0.049500
      2 C13          2.1290    -0.0020     3.7140 c3         1 B8V       0.647200
      3 C2           1.3920     0.0000     0.0000 ca         1 B8V      -0.117000
      4 C23          4.2590    -0.0000    -0.5520 c3         1 B8V       0.066700
      5 C25          5.7800    -0.0010    -0.7180 c3         1 B8V       0.172800
      6 C29          7.5520     0.2380    -2.3510 c3         1 B8V       0.149800
      7 C3           2.0810     0.0000     1.2050 ca         1 B8V       0.117900
      8 C30          7.8410     0.3770    -3.8470 c3         1 B8V      -0.023900
      9 C31          7.4100    -0.9030    -4.5670 c3         1 B8V      -0.027400
     10 C32          5.9240    -1.1540    -4.2990 c3         1 B8V      -0.023900
     11 C33          5.6900    -1.2490    -2.7900 c3         1 B8V       0.149800
     12 C4           1.3800    -0.0010     2.4060 ca         1 B8V      -0.193300
     13 C40         -0.7430    -0.0050    -1.2850 cc         1 B8V       0.415800
     14 C42         -1.8970     0.7340    -1.5750 cc         1 B8V      -0.306600
     15 C43         -2.2670     0.4500    -2.8500 cd         1 B8V      -0.240600
     16 C5          -0.0020    -0.0010     2.4030 ca         1 B8V      -0.037000
     17 C51         -3.4770     1.0610    -3.5130 c3         1 B8V       0.070900
     18 C52         -4.3570     1.6730    -2.4140 c3         1 B8V       0.148800
     19 C54         -2.6470     1.6930    -0.6850 c3         1 B8V       0.250100
     20 C6          -0.6940     0.0000     1.2080 ca         1 B8V      -0.116000
     21 C62         -0.6070    -0.1060    -5.6480 c3         1 B8V       0.169100
     22 C66         -0.7380    -0.6310    -7.0790 c3         1 B8V       0.111800
     23 C70          0.5540    -0.2520    -9.2670 c3         1 B8V       0.156800
     24 C71         -0.7220    -0.6810    -9.9950 c3         1 B8V      -0.070400
     25 C72         -1.5950     0.5510   -10.2520 c3         1 B8V       0.015600
     26 C73         -1.9090     1.2320    -8.9170 c3         1 B8V      -0.070400
     27 C74         -0.5980     1.6050    -8.2200 c3         1 B8V       0.156800
     28 C81         -2.8800     0.1270   -10.9160 ca         1 B8V      -0.124300
     29 C83         -3.2070     0.6200   -12.1710 ca         1 B8V       0.159100
     30 C84         -4.3900     0.2280   -12.7810 ca         1 B8V      -0.207000
     31 C85         -5.2400    -0.6510   -12.1360 ca         1 B8V      -0.057000
     32 C86         -4.9100    -1.1410   -10.8860 ca         1 B8V      -0.142000
     33 C87         -3.7290    -0.7560   -10.2790 ca         1 B8V      -0.067000
     34 C96         -2.7730     1.9510   -14.0930 c3         1 B8V       0.243700
     35 F17          2.9330     1.1400     3.7910 f          1 B8V      -0.205967
     36 F19          1.2160    -0.0020     4.7730 f          1 B8V      -0.205967
     37 F21          2.9330    -1.1450     3.7900 f          1 B8V      -0.205967
     38 N29          6.1160     0.0010    -2.1480 n3         1 B8V      -0.540600
     39 N44         -1.3860    -0.4290    -3.3530 na         1 B8V       0.529400
     40 N45         -0.4310    -0.7020    -2.3610 nd         1 B8V      -0.629800
     41 N53         -3.5330     2.5100    -1.5300 n7         1 B8V      -0.583200
     42 N68          0.2010     0.3940    -7.9960 n3         1 B8V      -0.542600
     43 O64          0.7680    -0.1190    -5.2590 oh         1 B8V      -0.560800
     44 O94         -2.3710     1.4850   -12.8030 os         1 B8V      -0.307900
     45 S23          3.8430    -0.0010     1.2130 ss         1 B8V      -0.320000
     46 H1           1.9350     0.0010    -0.9370 ha         1 B8V       0.139000
     47 H2           3.8440     0.8850    -1.0200 h1         1 B8V       0.054200
     48 H3           3.8440    -0.8840    -1.0210 h1         1 B8V       0.054200
     49 H4           6.1950     0.8840    -0.2490 h1         1 B8V       0.022700
     50 H5           6.1940    -0.8860    -0.2500 h1         1 B8V       0.022700
     51 H6           8.1150    -0.5970    -1.9510 h1         1 B8V       0.010950
     52 H7           7.8410     1.1510    -1.8420 h1         1 B8V       0.010950
     53 H8           8.9030     0.5340    -3.9950 hc         1 B8V       0.020200
     54 H9           7.2870     1.2180    -4.2450 hc         1 B8V       0.020200
     55 H10          7.9900    -1.7390    -4.1940 hc         1 B8V       0.012700
     56 H11          7.5710    -0.7900    -5.6320 hc         1 B8V       0.012700
     57 H12          5.6240    -2.0830    -4.7690 hc         1 B8V       0.020200
     58 H13          5.3410    -0.3350    -4.7030 hc         1 B8V       0.020200
     59 H14          4.6360    -1.4100    -2.5990 h1         1 B8V       0.010950
     60 H15          6.2660    -2.0740    -2.3880 h1         1 B8V       0.010950
     61 H16         -0.5440    -0.0010     3.3410 ha         1 B8V       0.121000
     62 H17         -3.1640     1.8340    -4.2040 hc         1 B8V       0.021700
     63 H18         -4.0310     0.2930    -4.0400 hc         1 B8V       0.021700
     64 H19         -4.7690     0.8640    -1.8230 h1         1 B8V       0.013200
     65 H20         -5.0950     2.3080    -2.8880 h1         1 B8V       0.013200
     66 H21         -3.2390     1.1370     0.0320 h1         1 B8V       0.011200
     67 H22         -1.9440     2.3340    -0.1670 h1         1 B8V       0.011200
     68 H23         -1.7770     0.0000     1.2100 ha         1 B8V       0.118000
     69 H24         -0.9790    -1.9910    -4.6830 h1         1 B8V       0.045200
     70 H25         -2.4380    -1.0590    -5.0480 h1         1 B8V       0.045200
     71 H26         -0.9860     0.9080    -5.6000 h1         1 B8V       0.011700
     72 H27         -1.7870    -0.7050    -7.3420 h1         1 B8V       0.031200
     73 H28         -0.2790    -1.6100    -7.1480 h1         1 B8V       0.031200
     74 H29          1.1040     0.4480    -9.8850 h1         1 B8V       0.025700
     75 H30          1.1660    -1.1240    -9.0690 h1         1 B8V       0.025700
     76 H31         -0.4610    -1.1410   -10.9400 hc         1 B8V       0.026950
     77 H32         -1.2670    -1.3870    -9.3810 hc         1 B8V       0.026950
     78 H33         -1.0620     1.2420   -10.8930 hc         1 B8V       0.048700
     79 H34         -2.4890     2.1290    -9.0980 hc         1 B8V       0.026950
     80 H35         -2.4710     0.5520    -8.2880 hc         1 B8V       0.026950
     81 H36         -0.8170     2.0720    -7.2680 h1         1 B8V       0.025700
     82 H37         -0.0410     2.2920    -8.8460 h1         1 B8V       0.025700
     83 H38         -4.6490     0.6110   -13.7610 ha         1 B8V       0.121000
     84 H39         -6.1650    -0.9560   -12.6100 ha         1 B8V       0.101000
     85 H40         -5.5760    -1.8310   -10.3830 ha         1 B8V       0.105000
     86 H41         -3.4730    -1.1410    -9.2990 ha         1 B8V       0.105000
     87 H42         -3.7200     2.4700   -14.0100 h1         1 B8V      -0.001300
     88 H43         -2.8800     1.1070   -14.7640 h1         1 B8V      -0.001300
     89 H44         -2.0220     2.6290   -14.4820 h1         1 B8V      -0.001300
     90 H46         -4.1280     3.0680    -0.9500 hn         1 B8V       0.254800
     91 H49          1.0790     0.7670    -5.1750 ho         1 B8V       0.398000
     92 C60         -1.4130    -0.9980    -4.7020 c3         1 B8V      -0.039700
@<TRIPOS>BOND
     1     1     3 ar  
     2     1    13 1   
     3     1    20 ar  
     4     2    12 1   
     5     2    35 1   
     6     2    36 1   
     7     2    37 1   
     8     3     7 ar  
     9     3    46 1   
    10     4     5 1   
    11     4    45 1   
    12     4    47 1   
    13     4    48 1   
    14     5    38 1   
    15     5    49 1   
    16     5    50 1   
    17     6     8 1   
    18     6    38 1   
    19     6    51 1   
    20     6    52 1   
    21     7    12 ar  
    22     7    45 1   
    23     8     9 1   
    24     8    53 1   
    25     8    54 1   
    26     9    10 1   
    27     9    55 1   
    28     9    56 1   
    29    10    11 1   
    30    10    57 1   
    31    10    58 1   
    32    11    38 1   
    33    11    59 1   
    34    11    60 1   
    35    12    16 ar  
    36    13    14 1   
    37    13    40 2   
    38    14    15 2   
    39    14    19 1   
    40    15    17 1   
    41    15    39 1   
    42    16    20 ar  
    43    16    61 1   
    44    17    18 1   
    45    17    62 1   
    46    17    63 1   
    47    18    41 1   
    48    18    64 1   
    49    18    65 1   
    50    19    41 1   
    51    19    66 1   
    52    19    67 1   
    53    20    68 1   
    54    21    22 1   
    55    21    43 1   
    56    21    71 1   
    57    21    92 1   
    58    22    42 1   
    59    22    72 1   
    60    22    73 1   
    61    23    24 1   
    62    23    42 1   
    63    23    74 1   
    64    23    75 1   
    65    24    25 1   
    66    24    76 1   
    67    24    77 1   
    68    25    26 1   
    69    25    28 1   
    70    25    78 1   
    71    26    27 1   
    72    26    79 1   
    73    26    80 1   
    74    27    42 1   
    75    27    81 1   
    76    27    82 1   
    77    28    29 ar  
    78    28    33 ar  
    79    29    30 ar  
    80    29    44 1   
    81    30    31 ar  
    82    30    83 1   
    83    31    32 ar  
    84    31    84 1   
    85    32    33 ar  
    86    32    85 1   
    87    33    86 1   
    88    34    44 1   
    89    34    87 1   
    90    34    88 1   
    91    34    89 1   
    92    39    40 1   
    93    39    92 1   
    94    41    90 1   
    95    43    91 1   
    96    69    92 1   
    97    70    92 1   
@<TRIPOS>SUBSTRUCTURE
     1 B8V         1 TEMP              0 ****  ****    0 ROOT
