@<TRIPOS>MOLECULE
molecule
   92    97     1     0     0
SMALL
bcc


@<TRIPOS>ATOM
      1 C1           0.0000     0.0000     0.0000 ca         1 B8V      -0.057500
      2 C13          2.1290    -0.0020     3.7140 c3         1 B8V       0.673200
      3 C2           1.3920     0.0000     0.0000 ca         1 B8V      -0.133000
      4 C23          4.2590    -0.0000    -0.5520 c3         1 B8V      -0.015300
      5 C25          5.7800    -0.0010    -0.7180 c3         1 B8V       0.177800
      6 C29          7.5520     0.2380    -2.3510 c3         1 B8V       0.162800
      7 C3           2.0810     0.0000     1.2050 ca         1 B8V       0.081900
      8 C30          7.8410     0.3770    -3.8470 c3         1 B8V      -0.077900
      9 C31          7.4100    -0.9030    -4.5670 c3         1 B8V      -0.082400
     10 C32          5.9240    -1.1540    -4.2990 c3         1 B8V      -0.077900
     11 C33          5.6900    -1.2490    -2.7900 c3         1 B8V       0.162800
     12 C4           1.3800    -0.0010     2.4060 ca         1 B8V      -0.175300
     13 C40         -0.7430    -0.0050    -1.2850 cc         1 B8V       0.384800
     14 C42         -1.8970     0.7340    -1.5750 cc         1 B8V      -0.292600
     15 C43         -2.2670     0.4500    -2.8500 cd         1 B8V      -0.064600
     16 C5          -0.0020    -0.0010     2.4030 ca         1 B8V      -0.071000
     17 C51         -3.4770     1.0610    -3.5130 c3         1 B8V      -0.011100
     18 C52         -4.3570     1.6730    -2.4140 c3         1 B8V       0.162800
     19 C54         -2.6470     1.6930    -0.6850 c3         1 B8V       0.242100
     20 C6          -0.6940     0.0000     1.2080 ca         1 B8V      -0.136000
     21 C62         -0.6070    -0.1060    -5.6480 c3         1 B8V       0.133100
     22 C66         -0.7380    -0.6310    -7.0790 c3         1 B8V       0.108800
     23 C70          0.5540    -0.2520    -9.2670 c3         1 B8V       0.138300
     24 C71         -0.7220    -0.6810    -9.9950 c3         1 B8V      -0.113400
     25 C72         -1.5950     0.5510   -10.2520 c3         1 B8V      -0.018400
     26 C73         -1.9090     1.2320    -8.9170 c3         1 B8V      -0.113400
     27 C74         -0.5980     1.6050    -8.2200 c3         1 B8V       0.138300
     28 C81         -2.8800     0.1270   -10.9160 ca         1 B8V      -0.106300
     29 C83         -3.2070     0.6200   -12.1710 ca         1 B8V       0.144100
     30 C84         -4.3900     0.2280   -12.7810 ca         1 B8V      -0.217000
     31 C85         -5.2400    -0.6510   -12.1360 ca         1 B8V      -0.091000
     32 C86         -4.9100    -1.1410   -10.8860 ca         1 B8V      -0.165000
     33 C87         -3.7290    -0.7560   -10.2790 ca         1 B8V      -0.093000
     34 C96         -2.7730     1.9510   -14.0930 c3         1 B8V       0.128700
     35 F17          2.9330     1.1400     3.7910 f          1 B8V      -0.218967
     36 F19          1.2160    -0.0020     4.7730 f          1 B8V      -0.218967
     37 F21          2.9330    -1.1450     3.7900 f          1 B8V      -0.218967
     38 N29          6.1160     0.0010    -2.1480 n3         1 B8V      -0.728600
     39 N44         -1.3860    -0.4290    -3.3530 na         1 B8V       0.085400
     40 N45         -0.4310    -0.7020    -2.3610 nd         1 B8V      -0.481800
     41 N53         -3.5330     2.5100    -1.5300 n7         1 B8V      -0.821200
     42 N68          0.2010     0.3940    -7.9960 n3         1 B8V      -0.669600
     43 O64          0.7680    -0.1190    -5.2590 oh         1 B8V      -0.578800
     44 O94         -2.3710     1.4850   -12.8030 os         1 B8V      -0.330900
     45 S23          3.8430    -0.0010     1.2130 ss         1 B8V      -0.224000
     46 H1           1.9350     0.0010    -0.9370 ha         1 B8V       0.159000
     47 H2           3.8440     0.8850    -1.0200 h1         1 B8V       0.076200
     48 H3           3.8440    -0.8840    -1.0210 h1         1 B8V       0.076200
     49 H4           6.1950     0.8840    -0.2490 h1         1 B8V       0.045200
     50 H5           6.1940    -0.8860    -0.2500 h1         1 B8V       0.045200
     51 H6           8.1150    -0.5970    -1.9510 h1         1 B8V       0.034700
     52 H7           7.8410     1.1510    -1.8420 h1         1 B8V       0.034700
     53 H8           8.9030     0.5340    -3.9950 hc         1 B8V       0.049950
     54 H9           7.2870     1.2180    -4.2450 hc         1 B8V       0.049950
     55 H10          7.9900    -1.7390    -4.1940 hc         1 B8V       0.039700
     56 H11          7.5710    -0.7900    -5.6320 hc         1 B8V       0.039700
     57 H12          5.6240    -2.0830    -4.7690 hc         1 B8V       0.049950
     58 H13          5.3410    -0.3350    -4.7030 hc         1 B8V       0.049950
     59 H14          4.6360    -1.4100    -2.5990 h1         1 B8V       0.034700
     60 H15          6.2660    -2.0740    -2.3880 h1         1 B8V       0.034700
     61 H16         -0.5440    -0.0010     3.3410 ha         1 B8V       0.151000
     62 H17         -3.1640     1.8340    -4.2040 hc         1 B8V       0.056700
     63 H18         -4.0310     0.2930    -4.0400 hc         1 B8V       0.056700
     64 H19         -4.7690     0.8640    -1.8230 h1         1 B8V       0.041700
     65 H20         -5.0950     2.3080    -2.8880 h1         1 B8V       0.041700
     66 H21         -3.2390     1.1370     0.0320 h1         1 B8V       0.041200
     67 H22         -1.9440     2.3340    -0.1670 h1         1 B8V       0.041200
     68 H23         -1.7770     0.0000     1.2100 ha         1 B8V       0.143000
     69 H24         -0.9790    -1.9910    -4.6830 h1         1 B8V       0.073200
     70 H25         -2.4380    -1.0590    -5.0480 h1         1 B8V       0.073200
     71 H26         -0.9860     0.9080    -5.6000 h1         1 B8V       0.041700
     72 H27         -1.7870    -0.7050    -7.3420 h1         1 B8V       0.055200
     73 H28         -0.2790    -1.6100    -7.1480 h1         1 B8V       0.055200
     74 H29          1.1040     0.4480    -9.8850 h1         1 B8V       0.058450
     75 H30          1.1660    -1.1240    -9.0690 h1         1 B8V       0.058450
     76 H31         -0.4610    -1.1410   -10.9400 hc         1 B8V       0.047700
     77 H32         -1.2670    -1.3870    -9.3810 hc         1 B8V       0.047700
     78 H33         -1.0620     1.2420   -10.8930 hc         1 B8V       0.075700
     79 H34         -2.4890     2.1290    -9.0980 hc         1 B8V       0.047700
     80 H35         -2.4710     0.5520    -8.2880 hc         1 B8V       0.047700
     81 H36         -0.8170     2.0720    -7.2680 h1         1 B8V       0.058450
     82 H37         -0.0410     2.2920    -8.8460 h1         1 B8V       0.058450
     83 H38         -4.6490     0.6110   -13.7610 ha         1 B8V       0.136000
     84 H39         -6.1650    -0.9560   -12.6100 ha         1 B8V       0.131000
     85 H40         -5.5760    -1.8310   -10.3830 ha         1 B8V       0.130000
     86 H41         -3.4730    -1.1410    -9.2990 ha         1 B8V       0.130000
     87 H42         -3.7200     2.4700   -14.0100 h1         1 B8V       0.042367
     88 H43         -2.8800     1.1070   -14.7640 h1         1 B8V       0.042367
     89 H44         -2.0220     2.6290   -14.4820 h1         1 B8V       0.042367
     90 H46         -4.1280     3.0680    -0.9500 hn         1 B8V       0.357800
     91 H49          1.0790     0.7670    -5.1750 ho         1 B8V       0.413000
     92 C60         -1.4130    -0.9980    -4.7020 c3         1 B8V       0.061300
@<TRIPOS>BOND
     1     8     9 1
     2     8     6 1
     3     9    10 1
     4     6    38 1
     5    10    11 1
     6    11    38 1
     7    38     5 1
     8     5     4 1
     9     4    45 1
    10    45     7 1
    11    37     2 1
    12    35     2 1
    13     2    12 1
    14     2    36 1
    15     7    12 ar
    16     7     3 ar
    17    34    44 1
    18    12    16 ar
    19     3     1 ar
    20    44    29 1
    21    30    29 ar
    22    30    31 ar
    23    16    20 ar
    24    29    28 ar
    25    19    41 1
    26    19    14 1
    27     1    20 ar
    28     1    13 1
    29    31    32 ar
    30    41    18 1
    31    26    27 1
    32    26    25 1
    33    14    13 1
    34    14    15 2
    35    27    42 1
    36    13    40 2
    37    28    25 1
    38    28    33 ar
    39    32    33 ar
    40    25    24 1
    41    18    17 1
    42    15    17 1
    43    15    39 1
    44    40    39 1
    45    43    21 1
    46    42    23 1
    47    42    22 1
    48    24    23 1
    49    39    92 1
    50    22    21 1
    51    21    92 1
    52     3    46 1
    53     4    47 1
    54     4    48 1
    55     5    49 1
    56     5    50 1
    57     6    51 1
    58     6    52 1
    59     8    53 1
    60     8    54 1
    61     9    55 1
    62     9    56 1
    63    10    57 1
    64    10    58 1
    65    11    59 1
    66    11    60 1
    67    16    61 1
    68    17    62 1
    69    17    63 1
    70    18    64 1
    71    18    65 1
    72    19    66 1
    73    19    67 1
    74    20    68 1
    75    92    69 1
    76    92    70 1
    77    21    71 1
    78    22    72 1
    79    22    73 1
    80    23    74 1
    81    23    75 1
    82    24    76 1
    83    24    77 1
    84    25    78 1
    85    26    79 1
    86    26    80 1
    87    27    81 1
    88    27    82 1
    89    30    83 1
    90    31    84 1
    91    32    85 1
    92    33    86 1
    93    34    87 1
    94    34    88 1
    95    34    89 1
    96    41    90 1
    97    43    91 1
@<TRIPOS>SUBSTRUCTURE
     1 B8V         1 TEMP              0 ****  ****    0 ROOT
