@<TRIPOS>MOLECULE
B8Y
   79    84     1     0     0
SMALL
bcc


@<TRIPOS>ATOM
      1 C26          0.0000     0.0000     0.0000 c3         1 B8Y      -0.054400
      2 C29          1.4680    -1.2220     2.1780 c3         1 B8Y       0.158300
      3 C30          2.0340     0.0000     1.4470 c3         1 B8Y      -0.054400
      4 C1           4.1580     0.5480    -3.7030 ca         1 B8Y      -0.032600
      5 C14          1.7700     2.4700    -0.3300 c          1 B8Y       0.584500
      6 C2           3.3820     0.2120    -2.6100 ca         1 B8Y      -0.086000
      7 C20          1.5310     0.0000     0.0000 c3         1 B8Y       0.035700
      8 C27         -0.5060    -1.2210     0.7720 c3         1 B8Y       0.158300
      9 C3           2.8270     1.2110    -1.8250 ca         1 B8Y      -0.138400
     10 C39         -2.0820    -2.0290     3.1120 c3         1 B8Y      -0.056400
     11 C4           3.0530     2.5520    -2.1410 ca         1 B8Y      -0.150400
     12 C41         -2.6840    -3.1560     3.9550 c3         1 B8Y       0.009000
     13 C45         -4.9900    -3.4630     3.2020 c          1 B8Y       0.475200
     14 C46         -6.4250    -3.2200     3.3910 cc         1 B8Y       0.336900
     15 C48         -5.9430    -2.0090     5.2870 cd         1 B8Y      -0.032400
     16 C49         -4.6120    -2.2130     5.1420 cc         1 B8Y      -0.180400
     17 C5           3.8330     2.8800    -3.2400 ca         1 B8Y      -0.072000
     18 C6           4.3830     1.8790    -4.0170 ca         1 B8Y      -0.098000
     19 C60         -7.4110    -3.7710     2.4340 ca         1 B8Y      -0.113900
     20 C62         -7.0500    -3.9890     1.1040 ca         1 B8Y      -0.056000
     21 C63         -7.9740    -4.5030     0.2180 ca         1 B8Y      -0.109000
     22 C64         -9.2570    -4.8020     0.6450 ca         1 B8Y      -0.019600
     23 C65         -9.6200    -4.5870     1.9640 ca         1 B8Y      -0.136300
     24 C66         -8.7040    -4.0790     2.8610 ca         1 B8Y      -0.044000
     25 C75        -11.0190    -4.9130     2.4220 c3         1 B8Y       0.110300
     26 C79        -13.2590    -3.9760     2.2170 c          1 B8Y       0.596700
     27 C83        -14.1930    -2.9460     1.7210 ca         1 B8Y      -0.167600
     28 C85        -15.5550    -3.0320     2.0180 ca         1 B8Y      -0.034000
     29 C86        -16.4210    -2.0670     1.5530 ca         1 B8Y      -0.144000
     30 C87        -15.9440    -1.0120     0.7920 ca         1 B8Y       0.124900
     31 C88        -14.5930    -0.9200     0.4930 ca         1 B8Y      -0.144000
     32 C89        -13.7160    -1.8770     0.9590 ca         1 B8Y      -0.034000
     33 F96        -16.7980    -0.0680     0.3380 f          1 B8Y      -0.127900
     34 N13          2.3790     3.3100    -1.1870 n          1 B8Y       0.048000
     35 N15          2.0220     1.1970    -0.6890 n          1 B8Y       0.056000
     36 N28          0.0000    -1.1730     2.1500 n3         1 B8Y      -0.534600
     37 N43         -4.1260    -2.9400     4.1010 n          1 B8Y       0.128000
     38 N47         -6.8240    -2.5040     4.4260 nd         1 B8Y      -0.405300
     39 N77        -11.9450    -3.8900     1.9290 ns         1 B8Y      -0.194900
     40 O58          1.0950     2.8090     0.6240 o          1 B8Y      -0.716500
     41 O81        -13.6750    -4.9030     2.8850 o          1 B8Y      -0.650100
     42 Cl24         4.8600    -0.7010    -4.6820 cl         1 B8Y      -0.021400
     43 Cl73       -10.4130    -5.4480    -0.4770 cl         1 B8Y      -0.019400
     44 H1          -0.3600     0.9030     0.4770 hc         1 B8Y       0.042950
     45 H2          -0.3600    -0.0440    -1.0210 hc         1 B8Y       0.042950
     46 H3           1.8080    -1.2150     3.2070 h1         1 B8Y       0.011450
     47 H4           1.8080    -2.1250     1.6860 h1         1 B8Y       0.011450
     48 H5           3.1160    -0.0460     1.4530 hc         1 B8Y       0.042950
     49 H6           1.7020     0.9030     1.9450 hc         1 B8Y       0.042950
     50 H7           3.2080    -0.8290    -2.3670 ha         1 B8Y       0.119000
     51 H8           1.8910    -0.8880    -0.5060 h1         1 B8Y       0.037700
     52 H9           1.7390     5.0840    -0.2790 h1         1 B8Y       0.020367
     53 H10          3.3460     5.1590    -1.0170 h1         1 B8Y       0.020367
     54 H11          1.9020     5.1610    -2.0390 h1         1 B8Y       0.020367
     55 H12         -0.1520    -2.1240     0.2890 h1         1 B8Y       0.011450
     56 H13         -1.5890    -1.2130     0.7860 h1         1 B8Y       0.011450
     57 H14         -0.4020    -3.2060     2.4710 h1         1 B8Y       0.011200
     58 H15         -0.1130    -2.2610     3.9380 h1         1 B8Y       0.011200
     59 H16         -2.5470    -2.0230     2.1330 hc         1 B8Y       0.036700
     60 H17         -2.2580    -1.0790     3.6010 hc         1 B8Y       0.036700
     61 H18         -2.2190    -3.1620     4.9340 h1         1 B8Y       0.045700
     62 H19         -2.5080    -4.1060     3.4660 h1         1 B8Y       0.045700
     63 H21         -6.2980    -1.4240     6.1270 h4         1 B8Y       0.135000
     64 H22         -3.9250    -1.7920     5.8660 h4         1 B8Y       0.137000
     65 H24          4.0110     3.9190    -3.4880 ha         1 B8Y       0.110000
     66 H25          4.9920     2.1360    -4.8750 ha         1 B8Y       0.118000
     67 H26         -6.0470    -3.7550     0.7690 ha         1 B8Y       0.141000
     68 H27         -7.6950    -4.6730    -0.8150 ha         1 B8Y       0.118000
     69 H28         -8.9900    -3.9110     3.8920 ha         1 B8Y       0.125000
     70 H29        -11.0490    -4.9360     3.5040 h1         1 B8Y       0.035700
     71 H30        -11.3100    -5.8820     2.0320 h1         1 B8Y       0.035700
     72 H31        -15.9290    -3.8570     2.6130 ha         1 B8Y       0.119500
     73 H32        -17.4780    -2.1330     1.7830 ha         1 B8Y       0.121500
     74 H33        -14.2250    -0.0920    -0.1000 ha         1 B8Y       0.121500
     75 H34        -12.6610    -1.8050     0.7250 ha         1 B8Y       0.119500
     76 H36        -11.5950    -3.1060     1.4140 hn         1 B8Y       0.183500
     77 C37         -0.5770    -2.2550     2.9600 c3         1 B8Y       0.160800
     78 C22          2.3390     4.7740    -1.1270 c3         1 B8Y       0.084300
     79 O56         -4.5870    -4.1230     2.2610 o          1 B8Y      -0.682500
@<TRIPOS>BOND
     1     1     7 1   
     2     1     8 1   
     3     1    44 1   
     4     1    45 1   
     5     2     3 1   
     6     2    36 1   
     7     2    46 1   
     8     2    47 1   
     9     3     7 1   
    10     3    48 1   
    11     3    49 1   
    12     4     6 ar  
    13     4    18 ar  
    14     4    42 1   
    15     5    34 1   
    16     5    35 1   
    17     5    40 2   
    18     6     9 ar  
    19     6    50 1   
    20     7    35 1   
    21     7    51 1   
    22     8    36 1   
    23     8    55 1   
    24     8    56 1   
    25     9    11 ar  
    26     9    35 1   
    27    10    12 1   
    28    10    59 1   
    29    10    60 1   
    30    10    77 1   
    31    11    17 ar  
    32    11    34 1   
    33    12    37 1   
    34    12    61 1   
    35    12    62 1   
    36    13    14 1   
    37    13    37 1   
    38    13    79 2   
    39    14    19 1   
    40    14    38 2   
    41    15    16 2   
    42    15    38 1   
    43    15    63 1   
    44    16    37 1   
    45    16    64 1   
    46    17    18 ar  
    47    17    65 1   
    48    18    66 1   
    49    19    20 ar  
    50    19    24 ar  
    51    20    21 ar  
    52    20    67 1   
    53    21    22 ar  
    54    21    68 1   
    55    22    23 ar  
    56    22    43 1   
    57    23    24 ar  
    58    23    25 1   
    59    24    69 1   
    60    25    39 1   
    61    25    70 1   
    62    25    71 1   
    63    26    27 1   
    64    26    39 1   
    65    26    41 2   
    66    27    28 ar  
    67    27    32 ar  
    68    28    29 ar  
    69    28    72 1   
    70    29    30 ar  
    71    29    73 1   
    72    30    31 ar  
    73    30    33 1   
    74    31    32 ar  
    75    31    74 1   
    76    32    75 1   
    77    34    78 1   
    78    36    77 1   
    79    39    76 1   
    80    52    78 1   
    81    53    78 1   
    82    54    78 1   
    83    57    77 1   
    84    58    77 1   
@<TRIPOS>SUBSTRUCTURE
     1 B8Y         1 TEMP              0 ****  ****    0 ROOT
