@<TRIPOS>MOLECULE
molecule
   79    84     1     0     0
SMALL
bcc


@<TRIPOS>ATOM
      1 C26          0.0000     0.0000     0.0000 c3         1 B8Y      -0.098900
      2 C29          1.4680    -1.2220     2.1780 c3         1 B8Y       0.165300
      3 C30          2.0340     0.0000     1.4470 c3         1 B8Y      -0.098900
      4 C1           4.1580     0.5480    -3.7030 ca         1 B8Y       0.029400
      5 C14          1.7700     2.4700    -0.3300 c          1 B8Y       0.802500
      6 C2           3.3820     0.2120    -2.6100 ca         1 B8Y      -0.122000
      7 C20          1.5310     0.0000     0.0000 c3         1 B8Y       0.140700
      8 C27         -0.5060    -1.2210     0.7720 c3         1 B8Y       0.165300
      9 C3           2.8270     1.2110    -1.8250 ca         1 B8Y       0.006600
     10 C39         -2.0820    -2.0290     3.1120 c3         1 B8Y      -0.103400
     11 C4           3.0530     2.5520    -2.1410 ca         1 B8Y      -0.002400
     12 C41         -2.6840    -3.1560     3.9550 c3         1 B8Y       0.085000
     13 C45         -4.9900    -3.4630     3.2020 c          1 B8Y       0.559200
     14 C46         -6.4250    -3.2200     3.3910 cc         1 B8Y       0.391900
     15 C48         -5.9430    -2.0090     5.2870 cd         1 B8Y      -0.029400
     16 C49         -4.6120    -2.2130     5.1420 cc         1 B8Y      -0.040400
     17 C5           3.8330     2.8800    -3.2400 ca         1 B8Y      -0.116000
     18 C6           4.3830     1.8790    -4.0170 ca         1 B8Y      -0.120000
     19 C60         -7.4110    -3.7710     2.4340 ca         1 B8Y      -0.111900
     20 C62         -7.0500    -3.9890     1.1040 ca         1 B8Y      -0.076000
     21 C63         -7.9740    -4.5030     0.2180 ca         1 B8Y      -0.134000
     22 C64         -9.2570    -4.8020     0.6450 ca         1 B8Y       0.046400
     23 C65         -9.6200    -4.5870     1.9640 ca         1 B8Y      -0.126300
     24 C66         -8.7040    -4.0790     2.8610 ca         1 B8Y      -0.066000
     25 C75        -11.0190    -4.9130     2.4220 c3         1 B8Y       0.164300
     26 C79        -13.2590    -3.9760     2.2170 c          1 B8Y       0.675700
     27 C83        -14.1930    -2.9460     1.7210 ca         1 B8Y      -0.161600
     28 C85        -15.5550    -3.0320     2.0180 ca         1 B8Y      -0.060500
     29 C86        -16.4210    -2.0670     1.5530 ca         1 B8Y      -0.179000
     30 C87        -15.9440    -1.0120     0.7920 ca         1 B8Y       0.153900
     31 C88        -14.5930    -0.9200     0.4930 ca         1 B8Y      -0.179000
     32 C89        -13.7160    -1.8770     0.9590 ca         1 B8Y      -0.060500
     33 F96        -16.7980    -0.0680     0.3380 f          1 B8Y      -0.137900
     34 N13          2.3790     3.3100    -1.1870 n          1 B8Y      -0.359000
     35 N15          2.0220     1.1970    -0.6890 n          1 B8Y      -0.354000
     36 N28          0.0000    -1.1730     2.1500 n3         1 B8Y      -0.725600
     37 N43         -4.1260    -2.9400     4.1010 n          1 B8Y      -0.304000
     38 N47         -6.8240    -2.5040     4.4260 nd         1 B8Y      -0.520300
     39 N77        -11.9450    -3.8900     1.9290 ns         1 B8Y      -0.577900
     40 O58          1.0950     2.8090     0.6240 o          1 B8Y      -0.659500
     41 O81        -13.6750    -4.9030     2.8850 o          1 B8Y      -0.610100
     42 Cl24         4.8600    -0.7010    -4.6820 cl         1 B8Y      -0.101400
     43 Cl73       -10.4130    -5.4480    -0.4770 cl         1 B8Y      -0.099400
     44 H1          -0.3600     0.9030     0.4770 hc         1 B8Y       0.071450
     45 H2          -0.3600    -0.0440    -1.0210 hc         1 B8Y       0.071450
     46 H3           1.8080    -1.2150     3.2070 h1         1 B8Y       0.037450
     47 H4           1.8080    -2.1250     1.6860 h1         1 B8Y       0.037450
     48 H5           3.1160    -0.0460     1.4530 hc         1 B8Y       0.071450
     49 H6           1.7020     0.9030     1.9450 hc         1 B8Y       0.071450
     50 H7           3.2080    -0.8290    -2.3670 ha         1 B8Y       0.148000
     51 H8           1.8910    -0.8880    -0.5060 h1         1 B8Y       0.062700
     52 H9           1.7390     5.0840    -0.2790 h1         1 B8Y       0.054033
     53 H10          3.3460     5.1590    -1.0170 h1         1 B8Y       0.054033
     54 H11          1.9020     5.1610    -2.0390 h1         1 B8Y       0.054033
     55 H12         -0.1520    -2.1240     0.2890 h1         1 B8Y       0.037450
     56 H13         -1.5890    -1.2130     0.7860 h1         1 B8Y       0.037450
     57 H14         -0.4020    -3.2060     2.4710 h1         1 B8Y       0.035700
     58 H15         -0.1130    -2.2610     3.9380 h1         1 B8Y       0.035700
     59 H16         -2.5470    -2.0230     2.1330 hc         1 B8Y       0.064700
     60 H17         -2.2580    -1.0790     3.6010 hc         1 B8Y       0.064700
     61 H18         -2.2190    -3.1620     4.9340 h1         1 B8Y       0.072700
     62 H19         -2.5080    -4.1060     3.4660 h1         1 B8Y       0.072700
     63 H21         -6.2980    -1.4240     6.1270 h4         1 B8Y       0.177000
     64 H22         -3.9250    -1.7920     5.8660 h4         1 B8Y       0.161000
     65 H24          4.0110     3.9190    -3.4880 ha         1 B8Y       0.142000
     66 H25          4.9920     2.1360    -4.8750 ha         1 B8Y       0.150000
     67 H26         -6.0470    -3.7550     0.7690 ha         1 B8Y       0.168000
     68 H27         -7.6950    -4.6730    -0.8150 ha         1 B8Y       0.149000
     69 H28         -8.9900    -3.9110     3.8920 ha         1 B8Y       0.158000
     70 H29        -11.0490    -4.9360     3.5040 h1         1 B8Y       0.066200
     71 H30        -11.3100    -5.8820     2.0320 h1         1 B8Y       0.066200
     72 H31        -15.9290    -3.8570     2.6130 ha         1 B8Y       0.149000
     73 H32        -17.4780    -2.1330     1.7830 ha         1 B8Y       0.149500
     74 H33        -14.2250    -0.0920    -0.1000 ha         1 B8Y       0.149500
     75 H34        -12.6610    -1.8050     0.7250 ha         1 B8Y       0.149000
     76 H36        -11.5950    -3.1060     1.4140 hn         1 B8Y       0.319500
     77 C37         -0.5770    -2.2550     2.9600 c3         1 B8Y       0.165800
     78 C22          2.3390     4.7740    -1.1270 c3         1 B8Y       0.116300
     79 O56         -4.5870    -4.1230     2.2610 o          1 B8Y      -0.638500
@<TRIPOS>BOND
     1    18    17 ar
     2    18     4 ar
     3    42     4 1
     4    17    11 ar
     5     4     6 ar
     6    11    34 1
     7    11     9 ar
     8    78    34 1
     9     6     9 ar
    10    34     5 1
    11     9    35 1
    12     5    35 1
    13     5    40 2
    14    35     7 1
    15     7     1 1
    16     7     3 1
    17     8     1 1
    18     8    36 1
    19     2     3 1
    20     2    36 1
    21    36    77 1
    22    77    10 1
    23    33    30 1
    24    10    12 1
    25    31    30 ar
    26    31    32 ar
    27    30    29 ar
    28    12    37 1
    29    29    28 ar
    30    32    27 ar
    31    37    13 1
    32    37    16 1
    33    79    13 2
    34    13    14 1
    35    16    15 2
    36    28    27 ar
    37    27    26 1
    38    15    38 1
    39    14    38 2
    40    14    19 1
    41    19    20 ar
    42    19    24 ar
    43    20    21 ar
    44    26    39 1
    45    26    41 2
    46    39    25 1
    47    24    23 ar
    48    21    22 ar
    49    23    22 ar
    50    23    25 1
    51    22    43 1
    52     1    44 1
    53     1    45 1
    54     2    46 1
    55     2    47 1
    56     3    48 1
    57     3    49 1
    58     6    50 1
    59     7    51 1
    60    78    52 1
    61    78    53 1
    62    78    54 1
    63     8    55 1
    64     8    56 1
    65    77    57 1
    66    77    58 1
    67    10    59 1
    68    10    60 1
    69    12    61 1
    70    12    62 1
    71    15    63 1
    72    16    64 1
    73    17    65 1
    74    18    66 1
    75    20    67 1
    76    21    68 1
    77    24    69 1
    78    25    70 1
    79    25    71 1
    80    28    72 1
    81    29    73 1
    82    31    74 1
    83    32    75 1
    84    39    76 1
@<TRIPOS>SUBSTRUCTURE
     1 B8Y         1 TEMP              0 ****  ****    0 ROOT
