@<TRIPOS>MOLECULE
molecule
   54    58     1     0     0
SMALL
bcc


@<TRIPOS>ATOM
      1 N1           0.0000     0.0000     0.0000 nc         1 B90      -0.498100
      2 C2           1.3020     0.0000     0.0000 cd         1 B90       0.377800
      3 C3           1.7540     0.0000     1.3390 ca         1 B90      -0.235900
      4 C4           0.6110    -0.0010     2.1580 ca         1 B90      -0.024200
      5 N5          -0.4730    -0.0010     1.3170 na         1 B90      -0.049100
      6 C6           3.0360     0.0000     1.9330 ca         1 B90       0.013200
      7 C7           3.1460     0.0010     3.3190 ca         1 B90      -0.112300
      8 C8           2.0090    -0.0010     4.1120 ca         1 B90      -0.080000
      9 C9           0.7540    -0.0020     3.5440 ca         1 B90      -0.150000
     10 C10          4.5080     0.0010     3.9630 c3         1 B90      -0.047800
     11 C14          4.2450     0.0010     1.0930 ce         1 B90      -0.158200
     12 C15          5.2190     0.8890     1.3210 c2         1 B90      -0.049100
     13 N16          6.3590     0.8890     0.5280 na         1 B90      -0.183200
     14 C17          6.6200     0.0450    -0.5150 cc         1 B90       0.421700
     15 N18          7.7800     0.3280    -1.0350 nd         1 B90      -0.576100
     16 C19          8.3380     1.3640    -0.3630 ca         1 B90      -0.203200
     17 C20          7.4320     1.7410     0.6430 ca         1 B90       0.474800
     18 C21          9.5430     2.0770    -0.4730 ca         1 B90       0.780200
     19 N22          9.7710     3.0690     0.3820 nb         1 B90      -0.818000
     20 C23          8.8920     3.3830     1.3160 ca         1 B90       0.738900
     21 N24          7.7440     2.7520     1.4480 nb         1 B90      -0.780000
     22 N25         10.4720     1.7540    -1.4480 nu         1 B90      -0.749300
     23 C26         11.6110     2.5460    -1.6180 ca         1 B90       0.188600
     24 C27         12.8050     1.9680    -2.0270 ca         1 B90      -0.159000
     25 C28         13.9290     2.7530    -2.1940 ca         1 B90      -0.043500
     26 C29         13.8660     4.1130    -1.9530 ca         1 B90      -0.342500
     27 C30         12.6780     4.6930    -1.5460 ca         1 B90      -0.043500
     28 C31         11.5490     3.9140    -1.3830 ca         1 B90      -0.159000
     29 P36         15.3440     5.1410    -2.1730 py         1 B90       1.087200
     30 C37         14.8470     6.8240    -2.6650 c3         1 B90      -0.308300
     31 C41         16.2720     5.2150    -0.6060 c3         1 B90      -0.308300
     32 O45         16.2030     4.5520    -3.2260 o          1 B90      -0.792300
     33 H2           1.9340     0.0000    -0.8800 h4         1 B90       0.059800
     34 HN5         -1.4340    -0.0010     1.5970 hn         1 B90       0.335700
     35 H8           2.1090    -0.0010     5.1910 ha         1 B90       0.138000
     36 H9          -0.1250    -0.0040     4.1770 ha         1 B90       0.132000
     37 H10          5.1830    -0.6160     3.3820 hc         1 B90       0.046033
     38 H10A         4.8890     1.0150     4.0020 hc         1 B90       0.046033
     39 H10B         4.4330    -0.3940     4.9690 hc         1 B90       0.046033
     40 H14          4.3460    -0.7190     0.2890 ha         1 B90       0.136000
     41 H15          5.1180     1.6080     2.1250 h4         1 B90       0.185000
     42 H17          5.9590    -0.7420    -0.8590 h5         1 B90       0.086800
     43 H23          9.1190     4.1990     1.9920 h5         1 B90       0.065100
     44 HN25        10.3160     0.9670    -2.0460 hn         1 B90       0.477800
     45 H27         12.8550     0.9020    -2.2160 ha         1 B90       0.149000
     46 H28         14.8610     2.3020    -2.5130 ha         1 B90       0.138500
     47 H30         12.6320     5.7590    -1.3610 ha         1 B90       0.138500
     48 H31         10.6190     4.3690    -1.0630 ha         1 B90       0.149000
     49 H37         14.4300     7.3420    -1.8100 hc         1 B90       0.077033
     50 H37A        14.1030     6.7650    -3.4510 hc         1 B90       0.077033
     51 H37B        15.7130     7.3640    -3.0280 hc         1 B90       0.077033
     52 H41         17.1220     5.8760    -0.7200 hc         1 B90       0.077033
     53 H41A        15.6260     5.5900     0.1790 hc         1 B90       0.077033
     54 H41B        16.6180     4.2220    -0.3440 hc         1 B90       0.077033
@<TRIPOS>BOND
     1     1     2 2
     2     1     5 1
     3     2     3 1
     4     3     4 ar
     5     3     6 ar
     6     4     5 1
     7     4     9 ar
     8     6     7 ar
     9     6    11 1
    10     7     8 ar
    11     7    10 1
    12     8     9 ar
    13    11    12 2
    14    12    13 1
    15    13    14 1
    16    13    17 1
    17    14    15 2
    18    15    16 1
    19    16    17 ar
    20    16    18 ar
    21    17    21 ar
    22    18    19 ar
    23    18    22 1
    24    19    20 ar
    25    20    21 ar
    26    22    23 1
    27    23    24 ar
    28    23    28 ar
    29    24    25 ar
    30    25    26 ar
    31    26    27 ar
    32    26    29 1
    33    27    28 ar
    34    29    30 1
    35    29    31 1
    36    29    32 2
    37     2    33 1
    38     5    34 1
    39     8    35 1
    40     9    36 1
    41    10    37 1
    42    10    38 1
    43    10    39 1
    44    11    40 1
    45    12    41 1
    46    14    42 1
    47    20    43 1
    48    22    44 1
    49    24    45 1
    50    25    46 1
    51    27    47 1
    52    28    48 1
    53    30    49 1
    54    30    50 1
    55    30    51 1
    56    31    52 1
    57    31    53 1
    58    31    54 1
@<TRIPOS>SUBSTRUCTURE
     1 B90         1 TEMP              0 ****  ****    0 ROOT
