@<TRIPOS>MOLECULE
B90
   54    60     1     0     0
SMALL
bcc


@<TRIPOS>ATOM
      1 N1           0.0000     0.0000     0.0000 n2         1 B90      -0.179000
      2 C2           1.3020     0.0000     0.0000 c2         1 B90      -0.034000
      3 C3           1.7540     0.0000     1.3390 c2         1 B90      -0.156000
      4 C4           0.6110    -0.0010     2.1580 c2         1 B90      -0.151000
      5 N5          -0.4730    -0.0010     1.3170 na         1 B90       0.248000
      6 C6           3.0360     0.0000     1.9330 c3         1 B90       0.185000
      7 C7           3.1460     0.0010     3.3190 c2         1 B90      -0.176000
      8 C8           2.0090    -0.0010     4.1120 c2         1 B90      -0.051000
      9 C9           0.7540    -0.0020     3.5440 c2         1 B90      -0.100000
     10 C10          4.5080     0.0010     3.9630 c3         1 B90      -0.087000
     11 C14          4.2450     0.0010     1.0930 c2         1 B90      -0.519000
     12 C15          5.2190     0.8890     1.3210 c2         1 B90      -0.081000
     13 N16          6.3590     0.8890     0.5280 nx         1 B90       0.312000
     14 C17          6.6200     0.0450    -0.5150 c2         1 B90      -0.225000
     15 N18          7.7800     0.3280    -1.0350 n2         1 B90      -0.034000
     16 C19          8.3380     1.3640    -0.3630 c2         1 B90      -0.255000
     17 C20          7.4320     1.7410     0.6430 c2         1 B90      -0.109000
     18 C21          9.5430     2.0770    -0.4730 c2         1 B90       0.060000
     19 N22          9.7710     3.0690     0.3820 n2         1 B90      -0.185000
     20 C23          8.8920     3.3830     1.3160 c2         1 B90       0.019000
     21 N24          7.7440     2.7520     1.4480 n2         1 B90      -0.107000
     22 N25         10.4720     1.7540    -1.4480 nu         1 B90       0.214000
     23 C26         11.6110     2.5460    -1.6180 ca         1 B90      -0.074000
     24 C27         12.8050     1.9680    -2.0270 ca         1 B90      -0.139000
     25 C28         13.9290     2.7530    -2.1940 ca         1 B90      -0.020500
     26 C29         13.8660     4.1130    -1.9530 ca         1 B90      -0.516000
     27 C30         12.6780     4.6930    -1.5460 ca         1 B90      -0.020500
     28 C31         11.5490     3.9140    -1.3830 ca         1 B90      -0.139000
     29 P36         15.3440     5.1410    -2.1730 p5         1 B90       1.869000
     30 C37         14.8470     6.8240    -2.6650 c3         1 B90      -0.530500
     31 C41         16.2720     5.2150    -0.6060 c3         1 B90      -0.530500
     32 O45         16.2030     4.5520    -3.2260 o          1 B90      -0.869000
     33 H2           1.9340     0.0000    -0.8800 h4         1 B90       0.156000
     34 HN5         -1.4340    -0.0010     1.5970 hn         1 B90       0.104000
     35 H8           2.1090    -0.0010     5.1910 ha         1 B90       0.110000
     36 H9          -0.1250    -0.0040     4.1770 ha         1 B90       0.106000
     37 H10          5.0590    -0.8750     3.6430 hc         1 B90       0.062000
     38 H10A         5.0470     0.8940     3.6680 hc         1 B90       0.062000
     39 H10B         4.3980    -0.0140     5.0410 hc         1 B90       0.062000
     40 H14          4.1930    -0.4190     2.0900 DU         1 B90       0.202000
     41 H15          6.0360     0.1860     1.4260 DU         1 B90       0.183000
     42 H17          5.9600    -0.7440    -0.8570 hx         1 B90       0.193000
     43 H23          9.1190     4.1990     1.9920 h5         1 B90       0.138000
     44 HN25        10.3070     0.9770    -2.0570 hn         1 B90       0.099000
     45 H27         12.8550     0.9020    -2.2160 ha         1 B90       0.122000
     46 H28         14.8610     2.3020    -2.5130 ha         1 B90       0.108000
     47 H30         12.6320     5.7590    -1.3610 ha         1 B90       0.108000
     48 H31         10.6190     4.3690    -1.0630 ha         1 B90       0.122000
     49 H37         14.3620     7.3160    -1.8310 hc         1 B90       0.074167
     50 H37A        15.7240     7.3880    -2.9580 hc         1 B90       0.074167
     51 H37B        14.1600     6.7670    -3.5010 hc         1 B90       0.074167
     52 H41         17.1230     5.8750    -0.7210 hc         1 B90       0.074167
     53 H41A        15.6260     5.5910     0.1780 hc         1 B90       0.074167
     54 H41B        16.6170     4.2220    -0.3440 hc         1 B90       0.074167
@<TRIPOS>BOND
     1     1     2 1   
     2     1     5 1   
     3     2     3 1   
     4     2    33 1   
     5     3     4 1   
     6     3     6 1   
     7     4     5 1   
     8     4     9 1   
     9     5    34 1   
    10     6     7 1   
    11     6    11 1   
    12     6    40 1   
    13     7     8 1   
    14     7    10 1   
    15     8     9 1   
    16     8    35 1   
    17     9    36 1   
    18    10    37 1   
    19    10    38 1   
    20    10    39 1   
    21    11    12 1   
    22    11    40 1   
    23    12    13 1   
    24    12    41 1   
    25    13    14 1   
    26    13    17 1   
    27    13    41 1   
    28    14    15 1   
    29    14    42 1   
    30    15    16 1   
    31    16    17 1   
    32    16    18 1   
    33    17    21 1   
    34    18    19 1   
    35    18    22 1   
    36    19    20 1   
    37    20    21 1   
    38    20    43 1   
    39    22    23 1   
    40    22    44 1   
    41    23    24 1   
    42    23    28 1   
    43    24    25 1   
    44    24    45 1   
    45    25    26 1   
    46    25    46 1   
    47    26    27 1   
    48    26    29 1   
    49    27    28 1   
    50    27    47 1   
    51    28    48 1   
    52    29    30 1   
    53    29    31 1   
    54    29    32 1   
    55    30    49 1   
    56    30    50 1   
    57    30    51 1   
    58    31    52 1   
    59    31    53 1   
    60    31    54 1   
@<TRIPOS>SUBSTRUCTURE
     1 B90         1 TEMP              0 ****  ****    0 ROOT
