@<TRIPOS>MOLECULE
molecule
   66    71     1     0     0
SMALL
bcc


@<TRIPOS>ATOM
      1 C1           0.0000     0.0000     0.0000 ca         1 B91       0.478800
      2 F1           6.0750    -0.7640   -12.2990 f          1 B91      -0.220300
      3 N1           1.3740     0.0000     0.0000 na         1 B91      -0.185200
      4 O1           2.8850     0.0070    -6.0590 o          1 B91      -0.591100
      5 C2          -4.0870     0.5520     4.5960 cx         1 B91      -0.157400
      6 F2           4.2980    -2.1850   -12.5120 f          1 B91      -0.220300
      7 N2           4.9000     0.0090    -6.9940 ns         1 B91      -0.476100
      8 C3           2.1990     0.0010    -1.1190 c2         1 B91      -0.035100
      9 F3           5.9720    -2.6630   -11.0330 f          1 B91      -0.220300
     10 N3           1.3610     1.0210   -10.1210 na         1 B91      -0.111000
     11 C4           3.5250     0.0010    -0.9730 ce         1 B91      -0.173200
     12 N4          -0.3970     1.6810   -11.1940 nc         1 B91      -0.684000
     13 C5           4.4000     0.0020    -2.1620 ca         1 B91      -0.049800
     14 N5           0.7460    -0.0020     2.0920 nc         1 B91      -0.570100
     15 C6           5.7890     0.0020    -2.0100 ca         1 B91      -0.043300
     16 N6          -0.9380     0.0000    -0.9410 nb         1 B91      -0.792000
     17 C7           6.6070     0.0030    -3.1210 ca         1 B91      -0.130000
     18 N7          -2.6270    -0.0050     0.6380 nb         1 B91      -0.828000
     19 C8           6.0610     0.0050    -4.3890 ca         1 B91      -0.101000
     20 N8          -2.2030    -0.0160     2.9590 nu         1 B91      -0.854900
     21 C9           4.6750     0.0050    -4.5560 ca         1 B91      -0.152600
     22 C10          3.8410    -0.0020    -3.4390 ca         1 B91      -0.061000
     23 C11          6.3940     0.0030    -0.6300 c3         1 B91      -0.053800
     24 C12          4.0920     0.0070    -5.9150 c          1 B91       0.680700
     25 C13          4.3520    -0.0880    -8.2770 ca         1 B91       0.080600
     26 C14          3.1330     0.5130    -8.5590 ca         1 B91      -0.123000
     27 C15          2.5930     0.4160    -9.8320 ca         1 B91       0.032800
     28 C16          3.2730    -0.2830   -10.8220 ca         1 B91      -0.125000
     29 C17          4.4850    -0.8800   -10.5390 ca         1 B91      -0.138300
     30 C18          5.0300    -0.7800    -9.2730 ca         1 B91      -0.133000
     31 C19          5.2210    -1.6370   -11.6150 c3         1 B91       0.676200
     32 C22          0.5820     1.7380    -9.2500 cd         1 B91      -0.263600
     33 C23          0.7180     1.0130   -11.3170 cd         1 B91       0.404400
     34 C24         -3.6390    -0.0160     3.2480 cx         1 B91       0.180500
     35 C25         -0.5070     2.1350    -9.9370 cc         1 B91       0.325600
     36 C26          1.7820     0.0000     1.3040 cd         1 B91       0.409700
     37 C27         -1.6480     2.9510    -9.3890 c3         1 B91      -0.107400
     38 C28         -4.1370    -0.9560     4.3470 cx         1 B91      -0.157400
     39 C29         -0.3870    -0.0080     1.3510 ca         1 B91      -0.214200
     40 C30         -1.7610    -0.0100     1.6470 ca         1 B91       0.794200
     41 C33         -2.2140     0.0000    -0.6160 ca         1 B91       0.747900
     42 H2          -5.0450     1.0580     4.5950 hc         1 B91       0.079200
     43 H2A         -3.2920     0.8920     5.2480 hc         1 B91       0.079200
     44 HN2          5.8880     0.1160    -6.8790 hn         1 B91       0.333500
     45 H3           1.7640     0.0020    -2.1120 h4         1 B91       0.183000
     46 H4           3.9600    -0.0000     0.0190 ha         1 B91       0.137000
     47 H7           7.6840     0.0040    -2.9970 ha         1 B91       0.139000
     48 H8           6.7100     0.0080    -5.2570 ha         1 B91       0.124000
     49 HN8         -1.5410    -0.0150     3.7100 hn         1 B91       0.467800
     50 H10          2.7650    -0.0020    -3.5630 ha         1 B91       0.161000
     51 H11          6.0700     0.8870    -0.0930 hc         1 B91       0.049700
     52 H11A         7.4740     0.0040    -0.7090 hc         1 B91       0.049700
     53 H11B         6.0720    -0.8820    -0.0940 hc         1 B91       0.049700
     54 H14          2.6390     1.1160    -7.8060 ha         1 B91       0.178000
     55 H16          2.8490    -0.3630   -11.8150 ha         1 B91       0.155000
     56 H18          5.9810    -1.2500    -9.0550 ha         1 B91       0.151000
     57 H22          0.7970     1.9410    -8.2080 h4         1 B91       0.184000
     58 H23          1.0700     0.5320   -12.2210 h5         1 B91       0.068100
     59 H24         -4.3360     0.1420     2.4350 h1         1 B91       0.125700
     60 H26          2.8140     0.0010     1.6330 h5         1 B91       0.081800
     61 H27         -1.2740     3.9050    -9.0360 hc         1 B91       0.047367
     62 H27A        -2.3810     3.1170   -10.1690 hc         1 B91       0.047367
     63 H27B        -2.1110     2.4180    -8.5670 hc         1 B91       0.047367
     64 H28         -5.1260    -1.3720     4.1930 hc         1 B91       0.079200
     65 H28A        -3.3720    -1.5380     4.8470 hc         1 B91       0.079200
     66 H33         -2.9530     0.0040    -1.4070 h5         1 B91       0.064100
@<TRIPOS>BOND
     1     1     3 1
     2     1    16 ar
     3     1    39 ar
     4     2    31 1
     5     3     8 1
     6     3    36 1
     7     4    24 2
     8     5    34 1
     9     5    38 1
    10     6    31 1
    11     7    24 1
    12     7    25 1
    13     8    11 2
    14     9    31 1
    15    10    27 1
    16    10    32 1
    17    10    33 1
    18    11    13 1
    19    12    33 2
    20    12    35 1
    21    13    15 ar
    22    13    22 ar
    23    14    36 2
    24    14    39 1
    25    15    17 ar
    26    15    23 1
    27    16    41 ar
    28    17    19 ar
    29    18    40 ar
    30    18    41 ar
    31    19    21 ar
    32    20    34 1
    33    20    40 1
    34    21    22 ar
    35    21    24 1
    36    25    26 ar
    37    25    30 ar
    38    26    27 ar
    39    27    28 ar
    40    28    29 ar
    41    29    30 ar
    42    29    31 1
    43    32    35 2
    44    34    38 1
    45    35    37 1
    46    39    40 ar
    47     5    42 1
    48     5    43 1
    49     7    44 1
    50     8    45 1
    51    11    46 1
    52    17    47 1
    53    19    48 1
    54    20    49 1
    55    22    50 1
    56    23    51 1
    57    23    52 1
    58    23    53 1
    59    26    54 1
    60    28    55 1
    61    30    56 1
    62    32    57 1
    63    33    58 1
    64    34    59 1
    65    36    60 1
    66    37    61 1
    67    37    62 1
    68    37    63 1
    69    38    64 1
    70    38    65 1
    71    41    66 1
@<TRIPOS>SUBSTRUCTURE
     1 B91         1 TEMP              0 ****  ****    0 ROOT
