@<TRIPOS>MOLECULE
B91
   66    71     1     0     0
SMALL
bcc


@<TRIPOS>ATOM
      1 C1          1.0500    1.7610    0.8800 ca        1 B91      0.458800
      2 F1          6.3000    0.9520  -11.4930 f         1 B91     -0.233633
      3 N1          2.1040    1.4340   -0.0050 na        1 B91     -0.221200
      4 O1          2.3880    0.4240   -5.4460 o         1 B91     -0.576100
      5 C2         -3.6430   -1.2270    2.8470 cx        1 B91     -0.148900
      6 F2          5.3800   -0.7940  -12.3910 f         1 B91     -0.233633
      7 N2          4.3430   -0.2950   -6.4570 n         1 B91     -0.472100
      8 C3          3.3220    2.1000   -0.0610 c2        1 B91     -0.015100
      9 F3          6.8460   -1.0320  -10.8120 f         1 B91     -0.233633
     10 N3          0.9660    0.1220   -9.9890 na        1 B91     -0.153000
     11 C4          4.4020    1.8140   -0.8140 ce        1 B91     -0.187200
     12 N4         -0.9010    0.0180  -11.2890 nc        1 B91     -0.654000
     13 C5          4.5820    0.7480   -1.7870 ca        1 B91     -0.065800
     14 N5          0.4110   -0.0910   -0.4070 nc        1 B91     -0.535100
     15 C6          5.4070   -0.3540   -1.4900 ca        1 B91     -0.035300
     16 N6          0.9500    2.7430    1.8220 nb        1 B91     -0.732000
     17 C7          5.6140   -1.3400   -2.4630 ca        1 B91     -0.138000
     18 N7         -1.2990    1.8820    2.3280 nb        1 B91     -0.776000
     19 C8          5.0300   -1.2340   -3.7220 ca        1 B91     -0.098000
     20 N8         -2.2670    0.0550    1.0810 nh        1 B91     -0.813900
     21 C9          4.2250   -0.1320   -4.0220 ca        1 B91     -0.159600
     22 C10         3.9950    0.8510   -3.0550 ca        1 B91     -0.074000
     23 C11         6.0450   -0.4810   -0.1590 c3        1 B91     -0.061800
     24 C12         3.5610    0.0230   -5.3490 c         1 B91      0.686700
     25 C13         3.9690   -0.2090   -7.8060 ca        1 B91      0.097600
     26 C14         2.6280   -0.0860   -8.2180 ca        1 B91     -0.159000
     27 C15         2.3040   -0.0110   -9.5890 ca        1 B91      0.055800
     28 C16         3.3310   -0.0740  -10.5550 ca        1 B91     -0.142000
     29 C17         4.6490   -0.2140  -10.1330 ca        1 B91     -0.113300
     30 C18         4.9880   -0.2770   -8.7880 ca        1 B91     -0.159000
     31 C19         5.7610   -0.2730  -11.1790 c3        1 B91      0.687200
     32 C22        -0.0970    0.6250   -9.2200 cd        1 B91     -0.238600
     33 C23         0.4160   -0.2340  -11.2420 cd        1 B91      0.409400
     34 C24        -3.4150   -0.0500    1.9130 cx        1 B91      0.166500
     35 C25        -1.2410    0.5590  -10.0340 cc        1 B91      0.312600
     36 C26         1.6410    0.3060   -0.7440 cd        1 B91      0.418700
     37 C27        -2.6020    0.9800   -9.6640 c3        1 B91     -0.116400
     38 C28        -4.4840   -1.0810    1.6130 cx        1 B91     -0.148900
     39 C29        -0.0010    0.7910    0.6060 ca        1 B91     -0.225200
     40 C30        -1.2120    0.8980    1.3710 ca        1 B91      0.757200
     41 C33        -0.2370    2.7160    2.4750 ca        1 B91      0.685900
     42 H2         -4.0890   -1.0240    3.8360 hc        1 B91      0.077200
     43 H2A        -2.9030   -2.0450    2.8910 hc        1 B91      0.077200
     44 HN2         5.3010   -0.5140   -6.2870 hn        1 B91      0.326500
     45 H3          3.3600    2.9700    0.6320 h4        1 B91      0.176000
     46 H4          5.2880    2.4650   -0.6920 ha        1 B91      0.153000
     47 H7          6.2470   -2.2100   -2.2280 ha        1 B91      0.144000
     48 H8          5.1940   -2.0310   -4.4640 ha        1 B91      0.140000
     49 HN8        -2.0590   -0.7260    0.4960 hn        1 B91      0.448800
     50 H10         3.3450    1.7090   -3.2960 ha        1 B91      0.162000
     51 H11         6.8460   -1.2590   -0.1650 hc        1 B91      0.054033
     52 H11A        5.2790   -0.7680    0.6060 hc        1 B91      0.054033
     53 H11B        6.4970    0.4950    0.1520 hc        1 B91      0.054033
     54 H14         1.8210   -0.0490   -7.4630 ha        1 B91      0.188000
     55 H16         3.1070   -0.0120  -11.6320 ha        1 B91      0.161000
     56 H18         6.0470   -0.3850   -8.5030 ha        1 B91      0.153000
     57 H22         0.0360    0.9890   -8.2030 h4        1 B91      0.190000
     58 H23         1.0150   -0.6710  -12.0480 h5        1 B91      0.065100
     59 H24        -3.7520    0.9520    2.2690 h1        1 B91      0.117700
     60 H26         2.2700   -0.1520   -1.5210 h5        1 B91      0.088800
     61 H27        -2.9650    1.7840  -10.3520 hc        1 B91      0.049033
     62 H27A       -3.3120    0.1170   -9.7300 hc        1 B91      0.049033
     63 H27B       -2.6100    1.3720   -8.6170 hc        1 B91      0.049033
     64 H28        -4.3420   -1.7980    0.7840 hc        1 B91      0.077200
     65 H28A       -5.5390   -0.7690    1.7070 hc        1 B91      0.077200
     66 H33        -0.3650    3.4950    3.2570 h5        1 B91      0.055100
@<TRIPOS>BOND
     1    1    3 1   
     2    1   16 ar  
     3    1   39 ar  
     4    2   31 1   
     5    3    8 1   
     6    3   36 1   
     7    4   24 2   
     8    5   34 1   
     9    5   38 1   
    10    5   42 1   
    11    5   43 1   
    12    6   31 1   
    13    7   24 1   
    14    7   25 1   
    15    7   44 1   
    16    8   11 2   
    17    8   45 1   
    18    9   31 1   
    19   10   27 1   
    20   10   32 1   
    21   10   33 1   
    22   11   13 1   
    23   11   46 1   
    24   12   33 2   
    25   12   35 1   
    26   13   15 ar  
    27   13   22 ar  
    28   14   36 2   
    29   14   39 1   
    30   15   17 ar  
    31   15   23 1   
    32   16   41 ar  
    33   17   19 ar  
    34   17   47 1   
    35   18   40 ar  
    36   18   41 ar  
    37   19   21 ar  
    38   19   48 1   
    39   20   34 1   
    40   20   40 1   
    41   20   49 1   
    42   21   22 ar  
    43   21   24 1   
    44   22   50 1   
    45   23   51 1   
    46   23   52 1   
    47   23   53 1   
    48   25   26 ar  
    49   25   30 ar  
    50   26   27 ar  
    51   26   54 1   
    52   27   28 ar  
    53   28   29 ar  
    54   28   55 1   
    55   29   30 ar  
    56   29   31 1   
    57   30   56 1   
    58   32   35 2   
    59   32   57 1   
    60   33   58 1   
    61   34   38 1   
    62   34   59 1   
    63   35   37 1   
    64   36   60 1   
    65   37   61 1   
    66   37   62 1   
    67   37   63 1   
    68   38   64 1   
    69   38   65 1   
    70   39   40 ar  
    71   41   66 1   
@<TRIPOS>SUBSTRUCTURE
     1 B91         1 TEMP              0 ****  ****    0 ROOT
