@<TRIPOS>MOLECULE
molecule
   76    79     1     0     0
SMALL
bcc


@<TRIPOS>ATOM
      1 C1           0.0000     0.0000     0.0000 c3         1 B92      -0.195100
      2 C2           1.5070     0.0000     0.0000 c          1 B92       0.557100
      3 O3           2.1100     0.0010    -1.0460 o          1 B92      -0.560100
      4 C4           2.2620     0.0000     1.3050 c3         1 B92       0.045700
      5 C5           2.1920     1.3920     1.9340 c3         1 B92      -0.195400
      6 C6           2.8400     1.3620     3.2940 c          1 B92       0.885600
      7 O7           3.3080     0.3320     3.7170 o          1 B92      -0.840800
      8 O8           2.8970     2.4790     4.0360 o          1 B92      -0.840800
      9 N9           3.6610    -0.3570     1.0590 ns         1 B92      -0.532900
     10 C10          4.0250    -1.6530     0.9970 c          1 B92       0.653100
     11 O11          3.1940    -2.5240     1.1440 o          1 B92      -0.552100
     12 C12          5.4650    -2.0200     0.7450 c3         1 B92       0.121900
     13 C13          5.9110    -1.4580    -0.5820 c2         1 B92      -0.162200
     14 C14          6.8850    -1.9920    -1.2910 c2         1 B92      -0.145400
     15 C15          7.2760    -1.2700    -2.5570 c3         1 B92      -0.032200
     16 C16          7.6950    -2.2620    -3.6380 c3         1 B92      -0.082400
     17 C17          8.7780    -3.1800    -3.0650 c3         1 B92      -0.082400
     18 C18          8.1580    -4.0600    -1.9870 c3         1 B92      -0.080400
     19 C19          7.5900    -3.2390    -0.8410 c3         1 B92       0.211900
     20 N20          6.6380    -4.0650    -0.0890 n          1 B92      -0.369400
     21 N21          5.6010    -3.4760     0.6750 n          1 B92      -0.359400
     22 C22          4.9040    -4.4680     1.2250 c          1 B92       0.815500
     23 O23          3.9320    -4.3430     1.9440 o          1 B92      -0.565500
     24 N24          5.4630    -5.6380     0.8420 n          1 B92      -0.497400
     25 C25          4.9950    -6.9700     1.2350 c3         1 B92       0.121000
     26 C26          3.9680    -7.4690     0.2160 c3         1 B92       0.085700
     27 C27          3.5710    -8.9070     0.5560 c3         1 B92      -0.077400
     28 C28          2.4540    -9.3640    -0.3850 c3         1 B92      -0.175400
     29 C29          2.0640   -10.7800    -0.0510 c          1 B92       0.890600
     30 O30          2.6220   -11.3650     0.8470 o          1 B92      -0.867800
     31 O31          1.0970   -11.3930    -0.7510 o          1 B92      -0.867800
     32 N32          4.5510    -7.4270    -1.1260 ns         1 B92      -0.579900
     33 C33          3.7500    -7.3230    -2.2060 c          1 B92       0.655100
     34 O34          2.5460    -7.2660    -2.0650 o          1 B92      -0.580100
     35 C35          4.3490    -7.2800    -3.5870 c3         1 B92      -0.114100
     36 C36          3.2480    -7.1640    -4.6100 ca         1 B92      -0.051300
     37 C37          2.8090    -5.9170    -5.0130 ca         1 B92      -0.106000
     38 C38          1.7980    -5.8100    -5.9500 ca         1 B92      -0.131500
     39 C39          1.2270    -6.9500    -6.4840 ca         1 B92      -0.141000
     40 C40          1.6680    -8.1970    -6.0810 ca         1 B92      -0.131500
     41 C41          2.6820    -8.3040    -5.1490 ca         1 B92      -0.106000
     42 C42          6.5220    -5.3860     0.0420 c          1 B92       0.826500
     43 O43          7.2450    -6.2190    -0.4680 o          1 B92      -0.692500
     44 H1          -0.3610     1.0070     0.1720 hc         1 B92       0.054367
     45 H1A         -0.3610    -0.6520     0.7860 hc         1 B92       0.054367
     46 H1B         -0.3610    -0.3550    -0.9580 hc         1 B92       0.054367
     47 H4           1.8180    -0.7230     1.9780 h1         1 B92       0.115700
     48 H5           2.7140     2.1010     1.3010 hc         1 B92       0.040200
     49 H5A          1.1560     1.6920     2.0340 hc         1 B92       0.040200
     50 HN9          4.3510     0.3610     0.9610 hn         1 B92       0.312500
     51 H12          6.0930    -1.6310     1.5370 h1         1 B92       0.086700
     52 H13          5.4110    -0.5780    -0.9680 ha         1 B92       0.152000
     53 H15          6.4320    -0.6920    -2.9120 hc         1 B92       0.048700
     54 H15A         8.1050    -0.6050    -2.3440 hc         1 B92       0.048700
     55 H16          6.8390    -2.8540    -3.9380 hc         1 B92       0.044700
     56 H16A         8.0890    -1.7240    -4.4910 hc         1 B92       0.044700
     57 H17          9.1790    -3.8030    -3.8550 hc         1 B92       0.038200
     58 H17A         9.5690    -2.5800    -2.6310 hc         1 B92       0.038200
     59 H18          7.3390    -4.6060    -2.4390 hc         1 B92       0.069200
     60 H18A         8.9430    -4.6880    -1.5830 hc         1 B92       0.069200
     61 H19          8.4020    -2.9590    -0.1820 h1         1 B92       0.052700
     62 H25          4.5360    -6.9180     2.2150 h1         1 B92       0.073200
     63 H25A         5.8350    -7.6540     1.2650 h1         1 B92       0.073200
     64 H26          3.0900    -6.8350     0.2490 h1         1 B92       0.095700
     65 H27          4.4310    -9.5560     0.4380 hc         1 B92       0.046700
     66 H27A         3.2220    -8.9540     1.5800 hc         1 B92       0.046700
     67 H28          2.8040    -9.3170    -1.4100 hc         1 B92       0.045200
     68 H28A         1.5950    -8.7150    -0.2670 hc         1 B92       0.045200
     69 HN32         5.5390    -7.5340    -1.2460 hn         1 B92       0.317500
     70 H35          4.9130    -8.1870    -3.7650 hc         1 B92       0.057700
     71 H35A         5.0090    -6.4240    -3.6680 hc         1 B92       0.057700
     72 H37          3.2560    -5.0230    -4.5940 ha         1 B92       0.135500
     73 H38          1.4530    -4.8330    -6.2660 ha         1 B92       0.119500
     74 H39          0.4340    -6.8670    -7.2170 ha         1 B92       0.112000
     75 H40          1.2230    -9.0900    -6.5020 ha         1 B92       0.119500
     76 H41          3.0280    -9.2810    -4.8330 ha         1 B92       0.135500
@<TRIPOS>BOND
     1     2     1 1
     2     1    44 1
     3     1    45 1
     4     1    46 1
     5     4     2 1
     6     2     3 2
     7     5     4 1
     8     9     4 1
     9     4    47 1
    10     6     5 1
    11     5    48 1
    12     5    49 1
    13     7     6 1
    14     6     8 1
    15     9    10 1
    16     9    50 1
    17    12    10 1
    18    10    11 2
    19    21    12 1
    20    12    13 1
    21    12    51 1
    22    13    14 2
    23    13    52 1
    24    14    19 1
    25    14    15 1
    26    15    16 1
    27    15    53 1
    28    15    54 1
    29    16    17 1
    30    16    55 1
    31    16    56 1
    32    18    17 1
    33    17    57 1
    34    17    58 1
    35    19    18 1
    36    18    59 1
    37    18    60 1
    38    20    19 1
    39    19    61 1
    40    21    20 1
    41    42    20 1
    42    22    21 1
    43    23    22 2
    44    22    24 1
    45    25    24 1
    46    24    42 1
    47    26    25 1
    48    25    62 1
    49    25    63 1
    50    27    26 1
    51    32    26 1
    52    26    64 1
    53    27    28 1
    54    27    65 1
    55    27    66 1
    56    29    28 1
    57    28    67 1
    58    28    68 1
    59    30    29 1
    60    29    31 1
    61    32    33 1
    62    32    69 1
    63    35    33 1
    64    33    34 2
    65    36    35 1
    66    35    70 1
    67    35    71 1
    68    37    36 ar
    69    41    36 ar
    70    38    37 ar
    71    37    72 1
    72    39    38 ar
    73    38    73 1
    74    39    40 ar
    75    39    74 1
    76    40    41 ar
    77    40    75 1
    78    41    76 1
    79    42    43 2
@<TRIPOS>SUBSTRUCTURE
     1 B92         1 TEMP              0 ****  ****    0 ROOT
