@<TRIPOS>MOLECULE
molecule
   77    81     1     0     0
SMALL
bcc


@<TRIPOS>ATOM
      1 C1           0.0000     0.0000     0.0000 c3         1 B93      -0.195100
      2 C2           1.5070     0.0000     0.0000 c          1 B93       0.555100
      3 O3           2.1110     0.0010    -1.0460 o          1 B93      -0.561100
      4 C4           2.2610     0.0000     1.3040 c3         1 B93       0.040700
      5 C5           2.1920     1.3930     1.9340 c3         1 B93      -0.196400
      6 C6           2.8390     1.3620     3.2950 c          1 B93       0.884600
      7 O7           2.8950     2.4790     4.0360 o          1 B93      -0.836800
      8 O8           3.3070     0.3320     3.7180 o          1 B93      -0.836800
      9 N9           3.6610    -0.3570     1.0610 ns         1 B93      -0.516900
     10 C10          4.0240    -1.6530     0.9990 c          1 B93       0.659100
     11 O11          3.1930    -2.5240     1.1450 o          1 B93      -0.610100
     12 C12          5.4640    -2.0200     0.7470 c3         1 B93       0.119900
     13 C13          5.8990    -1.4980    -0.6030 c2         1 B93      -0.171200
     14 C14          5.7140    -2.1740    -1.7060 c2         1 B93      -0.132400
     15 C15          6.1790    -1.5790    -3.0100 c3         1 B93      -0.036200
     16 C16          7.5760    -2.1080    -3.3420 c3         1 B93      -0.068700
     17 C17          7.9970    -1.6030    -4.7230 c3         1 B93      -0.076400
     18 C18          9.3940    -2.1320    -5.0560 c3         1 B93      -0.078900
     19 C19         10.3910    -1.6360    -4.0060 c3         1 B93      -0.080400
     20 C20          9.9690    -2.1400    -2.6240 c3         1 B93      -0.078900
     21 C21          8.5720    -1.6110    -2.2920 c3         1 B93      -0.076400
     22 C22          5.0500    -3.5320    -1.7200 c3         1 B93       0.194200
     23 N23          5.4090    -4.2110    -0.4710 n          1 B93      -0.356400
     24 N24          5.6100    -3.4790     0.7240 n          1 B93      -0.336400
     25 C25          5.9200    -4.3560     1.6760 c          1 B93       0.825500
     26 O26          6.1610    -4.0930     2.8380 o          1 B93      -0.631500
     27 N27          5.9200    -5.5910     1.1270 n          1 B93      -0.502400
     28 C28          6.2140    -6.8360     1.8400 c3         1 B93       0.124000
     29 C29          4.9170    -7.4140     2.4120 c3         1 B93       0.088000
     30 N30          5.2100    -8.6600     3.1260 ns         1 B93      -0.583900
     31 C31          4.2140    -9.3490     3.7160 c          1 B93       0.676700
     32 O32          3.0710    -8.9370     3.6560 o          1 B93      -0.597100
     33 C33          4.5090   -10.6040     4.4350 ca         1 B93      -0.164600
     34 C34          5.8270   -11.0740     4.5080 ca         1 B93      -0.090000
     35 C35          6.1130   -12.2330     5.1690 ca         1 B93      -0.141000
     36 C36          5.0950   -12.9580     5.7780 ca         1 B93      -0.081200
     37 N37          5.0590   -14.1310     6.5000 na         1 B93      -0.270300
     38 C38          3.7620   -14.3550     6.8480 cc         1 B93       0.418700
     39 N39          3.0040   -13.4020     6.3890 nd         1 B93      -0.589100
     40 C40          3.7660   -12.5000     5.7150 ca         1 B93       0.076400
     41 C41          3.4780   -11.3140     5.0430 ca         1 B93       0.002000
     42 C42          5.6070    -5.4960    -0.1840 c          1 B93       0.821500
     43 O43          5.5210    -6.4230    -0.9650 o          1 B93      -0.667500
     44 H1          -0.3610    -0.3540    -0.9580 hc         1 B93       0.055033
     45 H1A         -0.3610     1.0070     0.1730 hc         1 B93       0.055033
     46 H1B         -0.3610    -0.6530     0.7850 hc         1 B93       0.055033
     47 H4           1.8160    -0.7230     1.9780 h1         1 B93       0.112700
     48 H5           1.1560     1.6930     2.0330 hc         1 B93       0.043700
     49 H5A          2.7150     2.1010     1.3020 hc         1 B93       0.043700
     50 HN9          4.3510     0.3610     0.9630 hn         1 B93       0.320500
     51 H12          6.0960    -1.6020     1.5220 h1         1 B93       0.117700
     52 H13          6.3800    -0.5280    -0.6590 ha         1 B93       0.143000
     53 H15          6.2140    -0.4990    -2.9220 hc         1 B93       0.054700
     54 H15A         5.4910    -1.8550    -3.7990 hc         1 B93       0.054700
     55 H16          7.5660    -3.1910    -3.3430 hc         1 B93       0.055700
     56 H17          8.0140    -0.5200    -4.7210 hc         1 B93       0.044450
     57 H17A         7.2920    -1.9560    -5.4660 hc         1 B93       0.044450
     58 H18          9.3780    -3.2150    -5.0530 hc         1 B93       0.039700
     59 H18A         9.6920    -1.7730    -6.0330 hc         1 B93       0.039700
     60 H19         10.4030    -0.5520    -4.0060 hc         1 B93       0.037200
     61 H19A        11.3780    -2.0130    -4.2410 hc         1 B93       0.037200
     62 H20         10.6740    -1.7870    -1.8810 hc         1 B93       0.039700
     63 H20A         9.9520    -3.2240    -2.6260 hc         1 B93       0.039700
     64 H21          8.2740    -1.9710    -1.3150 hc         1 B93       0.044450
     65 H21A         8.5880    -0.5280    -2.2950 hc         1 B93       0.044450
     66 H22          3.9760    -3.3890    -1.7380 h1         1 B93       0.082200
     67 H22A         5.4510    -4.1020    -2.5490 h1         1 B93       0.082200
     68 H28          6.9060    -6.6350     2.6480 h1         1 B93       0.065700
     69 H28A         6.6560    -7.5490     1.1550 h1         1 B93       0.065700
     70 H29          4.4750    -6.7010     3.0970 h1         1 B93       0.076200
     71 H29A         4.2250    -7.6160     1.6040 h1         1 B93       0.076200
     72 HN30         6.1500    -8.9990     3.1760 hn         1 B93       0.306500
     73 H34          6.6250   -10.5130     4.0370 ha         1 B93       0.129000
     74 H35          7.1350   -12.5880     5.2200 ha         1 B93       0.125000
     75 H38          3.4110   -15.2030     7.4230 h5         1 B93       0.071800
     76 H41          2.4870   -10.8820     5.1070 ha         1 B93       0.174000
     77 HN37         5.8420   -14.7110     6.7270 hn         1 B93       0.300700
@<TRIPOS>BOND
     1     2     1 1
     2     1    44 1
     3     1    45 1
     4     1    46 1
     5     3     2 2
     6     2     4 1
     7     5     4 1
     8     4     9 1
     9     4    47 1
    10     5     6 1
    11     5    48 1
    12     5    49 1
    13     8     6 1
    14     6     7 1
    15     9    10 1
    16     9    50 1
    17    10    11 2
    18    10    12 1
    19    13    12 1
    20    12    24 1
    21    12    51 1
    22    13    14 2
    23    13    52 1
    24    15    14 1
    25    14    22 1
    26    16    15 1
    27    15    53 1
    28    15    54 1
    29    17    16 1
    30    21    16 1
    31    16    55 1
    32    18    17 1
    33    17    56 1
    34    17    57 1
    35    19    18 1
    36    18    58 1
    37    18    59 1
    38    19    20 1
    39    19    60 1
    40    19    61 1
    41    20    21 1
    42    20    62 1
    43    20    63 1
    44    21    64 1
    45    21    65 1
    46    23    22 1
    47    22    66 1
    48    22    67 1
    49    24    23 1
    50    23    42 1
    51    24    25 1
    52    26    25 2
    53    25    27 1
    54    27    42 1
    55    27    28 1
    56    28    29 1
    57    28    68 1
    58    28    69 1
    59    30    29 1
    60    29    70 1
    61    29    71 1
    62    30    31 1
    63    30    72 1
    64    33    31 1
    65    31    32 2
    66    34    33 ar
    67    33    41 ar
    68    35    34 ar
    69    34    73 1
    70    35    36 ar
    71    35    74 1
    72    36    37 1
    73    36    40 ar
    74    37    38 1
    75    38    39 2
    76    38    75 1
    77    40    39 1
    78    40    41 ar
    79    41    76 1
    80    42    43 2
    81    37    77 1
@<TRIPOS>SUBSTRUCTURE
     1 B93         1 TEMP              0 ****  ****    0 ROOT
