@<TRIPOS>MOLECULE
B94
   69    71     1     0     0
SMALL
bcc


@<TRIPOS>ATOM
      1 C1           0.0000     0.0000     0.0000 c3         1 B94      -0.095100
      2 C2           1.5070     0.0000     0.0000 c          1 B94       0.607100
      3 O3           2.1110    -0.0000    -1.0460 o          1 B94      -0.597100
      4 C4           2.2620     0.0000     1.3050 c3         1 B94      -0.061300
      5 C5           2.1940     1.3930     1.9330 c3         1 B94      -0.140400
      6 C6           2.8410     1.3630     3.2930 c          1 B94       0.970600
      7 O7           2.8980     2.4800     4.0350 o          1 B94      -0.891300
      8 O8           3.3100     0.3320     3.7170 o          1 B94      -0.891300
      9 N9           3.6610    -0.3580     1.0600 ns         1 B94      -0.117900
     10 C10          4.0250    -1.6540     0.9970 c          1 B94       0.547100
     11 O11          3.1930    -2.5240     1.1460 o          1 B94      -0.587100
     12 C12          5.4640    -2.0210     0.7460 c3         1 B94       0.051900
     13 C13          5.8990    -1.5000    -0.6050 c2         1 B94      -0.129200
     14 C14          6.8430    -2.0700    -1.3030 c2         1 B94      -0.188200
     15 C15          7.5810    -3.2970    -0.8150 c3         1 B94       0.135900
     16 C16          8.7600    -2.8790     0.0660 c3         1 B94      -0.063400
     17 N29          6.6340    -4.0980    -0.0330 n          1 B94      -0.146400
     18 N30          5.6090    -3.4800     0.7230 n          1 B94      -0.129400
     19 C31          4.9180    -4.4520     1.3170 c          1 B94       0.623500
     20 O32          3.9600    -4.2990     2.0500 o          1 B94      -0.608500
     21 N33          5.4670    -5.6350     0.9650 n          1 B94      -0.131400
     22 C34          5.0010    -6.9510     1.4080 c3         1 B94       0.061000
     23 C35          3.9550    -7.4790     0.4220 c3         1 B94      -0.041400
     24 C36          3.4680    -8.8540     0.8850 c3         1 B94      -0.127400
     25 C37          2.4390    -9.3730    -0.0850 c          1 B94       0.983600
     26 O38          2.1270    -8.7130    -1.0470 o          1 B94      -0.909800
     27 O39          1.8680   -10.5710     0.1200 o          1 B94      -0.909800
     28 C40          6.5140    -5.4130     0.1410 c          1 B94       0.636500
     29 O41          7.2230    -6.2650    -0.3560 o          1 B94      -0.712500
     30 C18          9.5720    -4.1170     0.4520 c3         1 B94       0.040000
     31 N5          10.7010    -3.7170     1.2950 ns         1 B94      -0.199900
     32 C19         11.5590    -4.6470     1.7590 c          1 B94       0.560100
     33 C20         12.7200    -4.2350     2.6260 c3         1 B94      -0.044100
     34 O9          11.3970    -5.8150     1.4770 o          1 B94      -0.623100
     35 C21         13.5200    -5.4550     3.0060 ca         1 B94      -0.054300
     36 C22         14.5660    -5.8720     2.2050 ca         1 B94      -0.073500
     37 C23         15.3000    -6.9900     2.5530 ca         1 B94      -0.098000
     38 C24         14.9870    -7.6920     3.7040 ca         1 B94      -0.030600
     39 C25         13.9410    -7.2730     4.5060 ca         1 B94      -0.098000
     40 C26         13.2120    -6.1520     4.1600 ca         1 B94      -0.073500
     41 Cl1         15.9090    -9.0970     4.1430 cl         1 B94      -0.053400
     42 H1          -0.3610     1.0070     0.1700 hc         1 B94       0.021033
     43 H1A         -0.3610    -0.6500     0.7870 hc         1 B94       0.021033
     44 H1B         -0.3610    -0.3570    -0.9570 hc         1 B94       0.021033
     45 H4           1.8170    -0.7220     1.9790 h1         1 B94       0.094700
     46 H5           1.1580     1.6940     2.0330 hc         1 B94       0.014700
     47 H5A          2.7160     2.1000     1.3000 hc         1 B94       0.014700
     48 HN9          4.3480     0.3610     0.9440 hn         1 B94       0.164500
     49 H12          6.0960    -1.6030     1.5200 h1         1 B94       0.046700
     50 H13          5.4090    -0.6220    -1.0080 ha         1 B94       0.121000
     51 H14          7.1080    -1.6500    -2.2660 ha         1 B94       0.104000
     52 H15          7.9340    -3.8720    -1.6630 h1         1 B94       0.054700
     53 H16          8.3880    -2.3970     0.9620 hc         1 B94       0.022700
     54 H16A         9.3910    -2.1880    -0.4800 hc         1 B94       0.022700
     55 H34          5.8380    -7.6370     1.4480 h1         1 B94       0.029200
     56 H34A         4.5570    -6.8650     2.3930 h1         1 B94       0.029200
     57 H35          4.3980    -7.5650    -0.5630 hc         1 B94       0.036200
     58 H35A         3.1170    -6.7930     0.3830 hc         1 B94       0.036200
     59 H36          3.0260    -8.7680     1.8700 hc         1 B94       0.004200
     60 H36A         4.3060    -9.5390     0.9240 hc         1 B94       0.004200
     61 H22          8.9410    -4.8070     0.9970 h1         1 B94       0.045200
     62 H23          9.9440    -4.5980    -0.4440 h1         1 B94       0.045200
     63 H24         10.8390    -2.7520     1.5220 hn         1 B94       0.167500
     64 H25         12.3480    -3.7530     3.5220 hc         1 B94       0.027700
     65 H26         13.3520    -3.5450     2.0800 hc         1 B94       0.027700
     66 H27         14.8110    -5.3230     1.3040 ha         1 B94       0.107500
     67 H28         16.1200    -7.3180     1.9250 ha         1 B94       0.110000
     68 H29         13.6970    -7.8200     5.4080 ha         1 B94       0.110000
     69 H30         12.3920    -5.8240     4.7880 ha         1 B94       0.107500
@<TRIPOS>BOND
     1     1     2 1   
     2     1    42 1   
     3     1    43 1   
     4     1    44 1   
     5     2     3 2   
     6     2     4 1   
     7     4     5 1   
     8     4     9 1   
     9     4    45 1   
    10     5     6 1   
    11     5    46 1   
    12     5    47 1   
    13     6     7 1   
    14     6     8 1   
    15     9    10 1   
    16     9    48 1   
    17    10    11 2   
    18    10    12 1   
    19    12    13 1   
    20    12    18 1   
    21    12    49 1   
    22    13    14 2   
    23    13    50 1   
    24    14    15 1   
    25    14    51 1   
    26    15    16 1   
    27    15    17 1   
    28    15    52 1   
    29    16    30 1   
    30    16    53 1   
    31    16    54 1   
    32    17    18 1   
    33    17    28 1   
    34    18    19 1   
    35    19    20 2   
    36    19    21 1   
    37    21    22 1   
    38    21    28 1   
    39    22    23 1   
    40    22    55 1   
    41    22    56 1   
    42    23    24 1   
    43    23    57 1   
    44    23    58 1   
    45    24    25 1   
    46    24    59 1   
    47    24    60 1   
    48    25    26 1   
    49    25    27 1   
    50    28    29 2   
    51    30    31 1   
    52    30    61 1   
    53    30    62 1   
    54    31    32 1   
    55    31    63 1   
    56    32    33 1   
    57    32    34 2   
    58    33    35 1   
    59    33    64 1   
    60    33    65 1   
    61    35    36 ar  
    62    35    40 ar  
    63    36    37 ar  
    64    36    66 1   
    65    37    38 ar  
    66    37    67 1   
    67    38    39 ar  
    68    38    41 1   
    69    39    40 ar  
    70    39    68 1   
    71    40    69 1   
@<TRIPOS>SUBSTRUCTURE
     1 B94         1 TEMP              0 ****  ****    0 ROOT
