@<TRIPOS>MOLECULE
molecule
   39    41     1     0     0
SMALL
bcc


@<TRIPOS>ATOM
      1 OAA          0.0000     0.0000     0.0000 o          1 B95      -0.558100
      2 CAC          2.6130     0.0130     6.2050 ca         1 B95      -0.166000
      3 CAD          3.4560     0.0000     5.1090 ca         1 B95      -0.078000
      4 CAE         -0.5360     0.5070    -8.9680 ca         1 B95      -0.111000
      5 CAF         -1.2060    -0.6290    -8.5350 ca         1 B95      -0.145000
      6 CAG          1.2420     0.0130     6.0250 ca         1 B95      -0.067000
      7 CAH          2.9310    -0.0050     3.8310 ca         1 B95      -0.225000
      8 CAI          0.4120     1.1060    -8.1660 ca         1 B95      -0.129000
      9 CAJ         -0.9420    -1.1690    -7.3080 ca         1 B95      -0.067000
     10 CAL          2.1500    -0.0010    -3.5980 c3         1 B95      -0.096700
     11 CAM          1.9660     0.0000     1.3060 c3         1 B95       0.063400
     12 NAN          1.5620     0.9120    -5.8980 na         1 B95      -0.261300
     13 NAO          1.8870    -0.0010    -1.1670 ns         1 B95      -0.595900
     14 NAP          0.4820    -0.8640    -5.2360 nc         1 B95      -0.594100
     15 OAQ          1.0370     0.0010     2.3920 os         1 B95      -0.278900
     16 CAR          1.2130     0.0000     0.0000 c          1 B95       0.655100
     17 CAS          0.7110     0.0010     4.7490 ca         1 B95      -0.046900
     18 CAT          1.3970    -0.0010    -4.9040 cd         1 B95       0.415800
     19 CAU          1.5560     0.0020     3.6470 ca         1 B95       0.163100
     20 CAV          0.6960     0.5690    -6.9180 ca         1 B95      -0.093200
     21 CAW          0.0100    -0.5750    -6.4760 ca         1 B95       0.093400
     22 HAC          3.0270     0.0200     7.2060 ha         1 B95       0.137000
     23 HAD          4.5300    -0.0020     5.2530 ha         1 B95       0.133000
     24 HAF         -1.9480    -1.0900    -9.1750 ha         1 B95       0.134000
     25 HAG          0.5830     0.0230     6.8850 ha         1 B95       0.148000
     26 HAH          3.5930    -0.0150     2.9730 ha         1 B95       0.133000
     27 HAI          0.9320     1.9930    -8.5080 ha         1 B95       0.127000
     28 HAJ         -1.4710    -2.0560    -6.9810 ha         1 B95       0.144000
     29 HAL          2.7720    -0.8860    -3.5400 hc         1 B95       0.059200
     30 HALA         2.7730     0.8830    -3.5410 hc         1 B95       0.059200
     31 HAM          2.5900     0.8840     1.3630 h1         1 B95       0.052200
     32 HAMA         2.5890    -0.8850     1.3640 h1         1 B95       0.052200
     33 HNAO         2.8880     0.0250    -1.1660 hn         1 B95       0.307500
     34 HNAN         2.2790     1.6080    -5.9450 hn         1 B95       0.300700
     35 BrAB        -1.1640     0.0010     4.5040 br         1 B95      -0.067100
     36 CAK          1.1550    -0.0000    -2.4350 c3         1 B95       0.121000
     37 HAE         -0.7570     0.9220    -9.9430 ha         1 B95       0.133000
     38 HAK          0.5310    -0.8840    -2.4930 h1         1 B95       0.073700
     39 HAKA         0.5330     0.8850    -2.4930 h1         1 B95       0.073700
@<TRIPOS>BOND
     1     1    16 2
     2    35    17 1
     3     6     2 ar
     4     2     3 ar
     5     2    22 1
     6     7     3 ar
     7     3    23 1
     8     8     4 ar
     9     4     5 ar
    10     4    37 1
    11     9     5 ar
    12     5    24 1
    13    17     6 ar
    14     6    25 1
    15    19     7 ar
    16     7    26 1
    17    20     8 ar
    18     8    27 1
    19    21     9 ar
    20     9    28 1
    21    13    36 1
    22    36    10 1
    23    36    38 1
    24    36    39 1
    25    10    18 1
    26    10    29 1
    27    10    30 1
    28    11    16 1
    29    11    15 1
    30    11    31 1
    31    11    32 1
    32    18    12 1
    33    12    20 1
    34    16    13 1
    35    13    33 1
    36    18    14 2
    37    14    21 1
    38    15    19 1
    39    17    19 ar
    40    20    21 ar
    41    12    34 1
@<TRIPOS>SUBSTRUCTURE
     1 B95         1 TEMP              0 ****  ****    0 ROOT
