@<TRIPOS>MOLECULE
B95
   39    41     1     0     0
SMALL
bcc


@<TRIPOS>ATOM
      1 OAA          0.0000     0.0000     0.0000 o          1 B95      -0.603100
      2 CAC          2.6130     0.0130     6.2050 ca         1 B95      -0.142000
      3 CAD          3.4560     0.0000     5.1090 ca         1 B95      -0.049000
      4 CAE         -0.5360     0.5070    -8.9680 ca         1 B95      -0.087000
      5 CAF         -1.2060    -0.6290    -8.5350 ca         1 B95      -0.118000
      6 CAG          1.2420     0.0130     6.0250 ca         1 B95      -0.043000
      7 CAH          2.9310    -0.0050     3.8310 ca         1 B95      -0.217000
      8 CAI          0.4120     1.1060    -8.1660 ca         1 B95      -0.088000
      9 CAJ         -0.9420    -1.1690    -7.3080 ca         1 B95      -0.035000
     10 CAL          2.1500    -0.0010    -3.5980 c3         1 B95      -0.019700
     11 CAM          1.9660     0.0000     1.3060 c3         1 B95       0.132400
     12 NAN          1.5620     0.9120    -5.8980 na         1 B95       0.269700
     13 NAO          1.8870    -0.0010    -1.1670 ns         1 B95      -0.207900
     14 NAP          0.4820    -0.8640    -5.2360 nc         1 B95      -0.506100
     15 OAQ          1.0370     0.0010     2.3920 os         1 B95      -0.250900
     16 CAR          1.2130     0.0000     0.0000 c          1 B95       0.559100
     17 CAS          0.7110     0.0010     4.7490 ca         1 B95      -0.010900
     18 CAT          1.3970    -0.0010    -4.9040 cd         1 B95       0.195800
     19 CAU          1.5560     0.0020     3.6470 ca         1 B95       0.166100
     20 CAV          0.6960     0.5690    -6.9180 ca         1 B95      -0.275200
     21 CAW          0.0100    -0.5750    -6.4760 ca         1 B95       0.065400
     22 HAC          3.0270     0.0200     7.2060 ha         1 B95       0.109000
     23 HAD          4.5300    -0.0020     5.2530 ha         1 B95       0.101000
     24 HAF         -1.9480    -1.0900    -9.1750 ha         1 B95       0.105000
     25 HAG          0.5830     0.0230     6.8850 ha         1 B95       0.116000
     26 HAH          3.5930    -0.0150     2.9730 ha         1 B95       0.117000
     27 HAI          0.9320     1.9930    -8.5080 ha         1 B95       0.100000
     28 HAJ         -1.4710    -2.0560    -6.9810 ha         1 B95       0.111000
     29 HAL          2.7720    -0.8860    -3.5400 hc         1 B95       0.019200
     30 HALA         2.7730     0.8830    -3.5410 hc         1 B95       0.019200
     31 HAM          2.5900     0.8840     1.3630 h1         1 B95       0.012700
     32 HAMA         2.5890    -0.8850     1.3640 h1         1 B95       0.012700
     33 HNAO         2.8880     0.0250    -1.1660 hn         1 B95       0.167500
     34 HNAN         2.2790     1.6080    -5.9450 hn         1 B95       0.125700
     35 BrAB        -1.1640     0.0010     4.5040 br         1 B95      -0.093100
     36 CAK          1.1550    -0.0000    -2.4350 c3         1 B95       0.053000
     37 HAE         -0.7570     0.9220    -9.9430 ha         1 B95       0.103000
     38 HAK          0.5310    -0.8840    -2.4930 h1         1 B95       0.041700
     39 HAKA         0.5330     0.8850    -2.4930 h1         1 B95       0.041700
@<TRIPOS>BOND
     1     1    16 2   
     2     2     3 ar  
     3     2     6 ar  
     4     2    22 1   
     5     3     7 ar  
     6     3    23 1   
     7     4     5 ar  
     8     4     8 ar  
     9     4    37 1   
    10     5     9 ar  
    11     5    24 1   
    12     6    17 ar  
    13     6    25 1   
    14     7    19 ar  
    15     7    26 1   
    16     8    20 ar  
    17     8    27 1   
    18     9    21 ar  
    19     9    28 1   
    20    10    18 1   
    21    10    29 1   
    22    10    30 1   
    23    10    36 1   
    24    11    15 1   
    25    11    16 1   
    26    11    31 1   
    27    11    32 1   
    28    12    18 1   
    29    12    20 1   
    30    12    34 1   
    31    13    16 1   
    32    13    33 1   
    33    13    36 1   
    34    14    18 2   
    35    14    21 1   
    36    15    19 1   
    37    17    19 ar  
    38    17    35 1   
    39    20    21 ar  
    40    36    38 1   
    41    36    39 1   
@<TRIPOS>SUBSTRUCTURE
     1 B95         1 TEMP              0 ****  ****    0 ROOT
