@<TRIPOS>MOLECULE
molecule
   76    80     1     0     0
SMALL
bcc


@<TRIPOS>ATOM
      1 C1           0.0000     0.0000     0.0000 c          1 B96       0.789100
      2 O1           1.2160     0.0000     0.0000 o          1 B96      -0.625100
      3 N2          -0.6740     0.0000     1.1680 ns         1 B96      -0.475100
      4 C3           0.0210    -0.1290     2.3750 ca         1 B96       0.030600
      5 C4          -0.5330     0.3760     3.5700 ca         1 B96      -0.020000
      6 C5           0.1830     0.2290     4.7830 ca         1 B96      -0.041000
      7 C6           1.4390    -0.4090     4.7740 ca         1 B96       0.118100
      8 C31         -1.7880     1.0070     3.5820 ca         1 B96      -0.138000
      9 C32         -2.2950     1.4760     4.7540 ca         1 B96      -0.108000
     10 C33         -1.5890     1.3370     5.9480 ca         1 B96      -0.143000
     11 C34         -0.3720     0.7270     5.9740 ca         1 B96      -0.085000
     12 C7           1.9510    -0.8820     3.6000 ca         1 B96      -0.223000
     13 C8           1.2510    -0.7460     2.4050 ca         1 B96      -0.096000
     14 N9          -0.6740     0.0000    -1.1670 ns         1 B96      -0.469100
     15 C10          0.0220     0.0010    -2.3750 cc         1 B96       0.079300
     16 C14          1.3750     0.0010    -2.5240 cd         1 B96      -0.341300
     17 C13          1.6550     0.0010    -3.8930 cd         1 B96       0.365600
     18 N12          0.5230    -0.0040    -4.5490 nc         1 B96      -0.503800
     19 N11         -0.5250    -0.0080    -3.6210 na         1 B96       0.115300
     20 C15         -1.8940    -0.0140    -3.9210 ca         1 B96       0.032800
     21 C17          2.9050     0.0060    -6.0360 c3         1 B96      -0.080100
     22 C18          3.7860     1.2590    -4.0620 c3         1 B96      -0.080100
     23 C19          3.7970    -1.2380    -4.0600 c3         1 B96      -0.080100
     24 C16          3.0310     0.0070    -4.5100 c3         1 B96      -0.083300
     25 C20         -2.3800     0.7550    -4.9700 ca         1 B96      -0.139500
     26 C21         -3.7290     0.7450    -5.2640 ca         1 B96      -0.112500
     27 C22         -4.5960    -0.0280    -4.5140 ca         1 B96      -0.089300
     28 C23         -4.1160    -0.7910    -3.4650 ca         1 B96      -0.112500
     29 C24         -2.7670    -0.7910    -3.1700 ca         1 B96      -0.139500
     30 C25         -6.0680    -0.0360    -4.8370 c3         1 B96      -0.047800
     31 O41          2.1390    -0.5500     5.9300 os         1 B96      -0.277900
     32 C42          3.3540    -1.2260     5.5970 c3         1 B96       0.116400
     33 C43          4.1930    -1.4190     6.8600 c3         1 B96       0.130800
     34 N44          3.4370    -2.2210     7.8330 n3         1 B96      -0.657600
     35 C45          4.2960    -2.3680     9.0160 c3         1 B96       0.094300
     36 C46          3.6430    -3.3370    10.0030 c3         1 B96       0.126400
     37 O47          3.5310    -4.6300     9.4050 os         1 B96      -0.406600
     38 C48          2.6630    -4.5010     8.2800 c3         1 B96       0.126400
     39 C49          3.2900    -3.5610     7.2490 c3         1 B96       0.094300
     40 H2          -1.6740     0.0410     1.1680 hn         1 B96       0.320500
     41 H31         -2.3480     1.1220     2.6610 ha         1 B96       0.121000
     42 H32         -3.2610     1.9660     4.7590 ha         1 B96       0.127000
     43 H33         -2.0140     1.7190     6.8670 ha         1 B96       0.131000
     44 H34          0.1660     0.6250     6.9090 ha         1 B96       0.152000
     45 H7           2.9180    -1.3710     3.5990 ha         1 B96       0.143000
     46 H8           1.6790    -1.1300     1.4870 ha         1 B96       0.175000
     47 H9          -1.6740     0.0380    -1.1670 hn         1 B96       0.324500
     48 H14          2.1050     0.0050    -1.7240 ha         1 B96       0.202000
     49 H171         2.3630     0.8880    -6.3540 hc         1 B96       0.039589
     50 H172         2.3700    -0.8810    -6.3530 hc         1 B96       0.039589
     51 H173         3.8930     0.0090    -6.4800 hc         1 B96       0.039589
     52 H181         3.1520     2.1280    -4.1920 hc         1 B96       0.039589
     53 H182         4.6820     1.3730    -4.6590 hc         1 B96       0.039589
     54 H183         4.0580     1.1630    -3.0180 hc         1 B96       0.039589
     55 H191         4.6940    -1.3460    -4.6580 hc         1 B96       0.039589
     56 H192         3.1710    -2.1130    -4.1870 hc         1 B96       0.039589
     57 H193         4.0690    -1.1370    -3.0160 hc         1 B96       0.039589
     58 H20         -1.7010     1.3610    -5.5580 ha         1 B96       0.146000
     59 H21         -4.1090     1.3430    -6.0840 ha         1 B96       0.137500
     60 H23         -4.7980    -1.3960    -2.8800 ha         1 B96       0.137500
     61 H24         -2.3920    -1.3880    -2.3480 ha         1 B96       0.146000
     62 H251        -6.2280    -0.5510    -5.7770 hc         1 B96       0.045367
     63 H252        -6.4240     0.9840    -4.9200 hc         1 B96       0.045367
     64 H253        -6.6080    -0.5450    -4.0490 hc         1 B96       0.045367
     65 H421         3.1230    -2.1920     5.1650 h1         1 B96       0.046700
     66 H422         3.9110    -0.6340     4.8800 h1         1 B96       0.046700
     67 H431         5.1130    -1.9310     6.6080 h1         1 B96       0.050700
     68 H432         4.4240    -0.4530     7.2920 h1         1 B96       0.050700
     69 H451         4.4220    -1.4030     9.4910 h1         1 B96       0.046950
     70 H452         5.2610    -2.7570     8.7140 h1         1 B96       0.046950
     71 H461         4.2530    -3.4060    10.8950 h1         1 B96       0.055950
     72 H462         2.6560    -2.9750    10.2620 h1         1 B96       0.055950
     73 H481         1.7130    -4.0950     8.6050 h1         1 B96       0.055950
     74 H482         2.5100    -5.4750     7.8310 h1         1 B96       0.055950
     75 H491         2.6500    -3.5050     6.3770 h1         1 B96       0.046950
     76 H492         4.2650    -3.9380     6.9640 h1         1 B96       0.046950
@<TRIPOS>BOND
     1     1     2 2
     2     1     3 1
     3     1    14 1
     4     3     4 1
     5     3    40 1
     6     4     5 ar
     7     4    13 ar
     8     5     6 ar
     9     5     8 ar
    10     6     7 ar
    11     6    11 ar
    12     7    12 ar
    13     7    31 1
    14     8     9 ar
    15     8    41 1
    16     9    10 ar
    17     9    42 1
    18    10    11 ar
    19    10    43 1
    20    11    44 1
    21    12    13 ar
    22    12    45 1
    23    13    46 1
    24    14    15 1
    25    14    47 1
    26    15    16 2
    27    15    19 1
    28    16    17 1
    29    16    48 1
    30    17    18 2
    31    17    24 1
    32    18    19 1
    33    19    20 1
    34    20    25 ar
    35    20    29 ar
    36    21    24 1
    37    21    49 1
    38    21    50 1
    39    21    51 1
    40    22    24 1
    41    22    52 1
    42    22    53 1
    43    22    54 1
    44    23    24 1
    45    23    55 1
    46    23    56 1
    47    23    57 1
    48    25    26 ar
    49    25    58 1
    50    26    27 ar
    51    26    59 1
    52    27    28 ar
    53    27    30 1
    54    28    29 ar
    55    28    60 1
    56    29    61 1
    57    30    62 1
    58    30    63 1
    59    30    64 1
    60    31    32 1
    61    32    33 1
    62    32    65 1
    63    32    66 1
    64    33    34 1
    65    33    67 1
    66    33    68 1
    67    34    35 1
    68    34    39 1
    69    35    36 1
    70    35    69 1
    71    35    70 1
    72    36    37 1
    73    36    71 1
    74    36    72 1
    75    37    38 1
    76    38    39 1
    77    38    73 1
    78    38    74 1
    79    39    75 1
    80    39    76 1
@<TRIPOS>SUBSTRUCTURE
     1 B96         1 TEMP              0 ****  ****    0 ROOT
