@<TRIPOS>MOLECULE
B97
   45    49     1     0     0
SMALL
bcc


@<TRIPOS>ATOM
      1 C15          0.0000     0.0000     0.0000 ca         1 B97      -0.076000
      2 C19          4.2670    -0.0000     2.4020 ca         1 B97      -0.030000
      3 C10         -0.5800     0.0060     3.6700 ca         1 B97      -0.127300
      4 C9          -1.9300     0.0050     3.7250 ca         1 B97      -0.056000
      5 C14          1.3670     0.0000     0.0000 ca         1 B97      -0.214300
      6 C20          5.6480    -0.0030     2.3360 ca         1 B97      -0.227300
      7 C24          4.2440    -0.0050    -0.0020 ca         1 B97       0.413200
      8 C16         -0.6590     0.0010     1.2370 ca         1 B97      -0.102300
      9 C17         -2.1320    -0.0010     1.3070 ca         1 B97      -0.075800
     10 C18          3.5450    -0.0010     1.2040 cp         1 B97      -0.285800
     11 C11          0.0930     0.0040     2.4300 ca         1 B97       0.375600
     12 C5          -3.0570    -0.0020     0.2290 cc         1 B97       0.040800
     13 C8          -2.7270    -0.0010     2.5600 ca         1 B97       0.032900
     14 C13          2.0620     0.0000     1.2170 cp         1 B97       0.450800
     15 C6          -4.3670    -0.0060     0.6200 cd         1 B97      -0.082600
     16 C21          6.2670    -0.0060     1.0990 ca         1 B97       0.382600
     17 C25         -5.5250    -0.0050    -0.1930 c          1 B97       0.642700
     18 C3          -3.3590    -0.7090    -2.0510 c3         1 B97       0.110800
     19 C2          -4.6030     0.0260    -2.4830 c3         1 B97      -0.027300
     20 C22          7.7730    -0.0080     1.0220 c3         1 B97      -0.042400
     21 C1          -5.1150    -0.5930    -3.7850 c3         1 B97      -0.001100
     22 N23          5.5600    -0.0070    -0.0150 nb         1 B97      -0.582000
     23 N12          1.4270     0.0030     2.3740 nb         1 B97      -0.563000
     24 N4          -2.5730    -0.0030    -1.0780 nu         1 B97      -0.399000
     25 N27         -5.6540    -0.0290    -1.4960 ns         1 B97      -0.146900
     26 O26         -6.5770     0.0230     0.4210 o          1 B97      -0.705500
     27 S7          -4.4730    -0.0080     2.3840 ss         1 B97      -0.091500
     28 H15         -0.5570     0.0000    -0.9290 ha         1 B97       0.143000
     29 H10         -0.0080     0.0090     4.5900 ha         1 B97       0.119000
     30 H9          -2.4160     0.0090     4.6930 ha         1 B97       0.112000
     31 H14          1.9090    -0.0960    -0.9330 ha         1 B97       0.122000
     32 H20          6.2400    -0.0020     3.2440 ha         1 B97       0.117000
     33 H24          3.6980    -0.0050    -0.9380 h4         1 B97      -0.015900
     34 H3          -3.6540    -1.6620    -1.6280 h1         1 B97       0.042200
     35 H3A         -2.7450    -0.8870    -2.9250 h1         1 B97       0.042200
     36 H2          -4.3480     1.0640    -2.6600 h1         1 B97       0.026700
     37 H22          8.0820    -0.0100    -0.0160 hc         1 B97       0.014033
     38 H22A         8.1580    -0.8930     1.5150 hc         1 B97       0.014033
     39 H22B         8.1610     0.8760     1.5130 hc         1 B97       0.014033
     40 H1          -6.0320    -0.0990    -4.0830 hc         1 B97       0.015033
     41 H1A         -5.3070    -1.6480    -3.6320 hc         1 B97       0.015033
     42 H1B         -4.3690    -0.4700    -4.5610 hc         1 B97       0.015033
     43 HN4         -2.4330     0.9400    -1.3830 hn         1 B97       0.268800
     44 HN27        -6.5890    -0.0920    -1.8480 hn         1 B97       0.193500
     45 H19          3.7560     0.0020     3.3570 ha         1 B97       0.128000
@<TRIPOS>BOND
     1     1     5 ar  
     2     1     8 ar  
     3     1    28 1   
     4     2     6 ar  
     5     2    10 ar  
     6     2    45 1   
     7     3     4 ar  
     8     3    11 ar  
     9     3    29 1   
    10     4    13 ar  
    11     4    30 1   
    12     5    14 ar  
    13     5    31 1   
    14     6    16 ar  
    15     6    32 1   
    16     7    10 ar  
    17     7    22 ar  
    18     7    33 1   
    19     8     9 ar  
    20     8    11 ar  
    21     9    12 1   
    22     9    13 ar  
    23    10    14 1   
    24    11    23 ar  
    25    12    15 2   
    26    12    24 1   
    27    13    27 1   
    28    14    23 ar  
    29    15    17 1   
    30    15    27 1   
    31    16    20 1   
    32    16    22 ar  
    33    17    25 1   
    34    17    26 2   
    35    18    19 1   
    36    18    24 1   
    37    18    34 1   
    38    18    35 1   
    39    19    21 1   
    40    19    25 1   
    41    19    36 1   
    42    20    37 1   
    43    20    38 1   
    44    20    39 1   
    45    21    40 1   
    46    21    41 1   
    47    21    42 1   
    48    24    43 1   
    49    25    44 1   
@<TRIPOS>SUBSTRUCTURE
     1 B97         1 TEMP              0 ****  ****    0 ROOT
