@<TRIPOS>MOLECULE
B98
   35    37     1     0     0
SMALL
bcc


@<TRIPOS>ATOM
      1 C4           0.0000     0.0000     0.0000 ca         1 B98      -0.163000
      2 C5           1.3730     0.0000     0.0000 ca         1 B98      -0.013000
      3 C19         -0.0240     0.0020     2.4000 ca         1 B98      -0.105000
      4 C18          1.3900     0.0040     2.4150 ca         1 B98      -0.059800
      5 C17          2.2750     0.0110     3.5870 cc         1 B98       0.043800
      6 C3          -0.7020    -0.0010     1.2040 ca         1 B98       0.159100
      7 C6           2.0810     0.0000     1.2110 ca         1 B98       0.006900
      8 C8           3.6000     0.0040     3.2620 cd         1 B98      -0.110600
      9 C9           4.7130     0.0080     4.1390 c          1 B98       0.669700
     10 C15          2.4500    -0.6810     5.8850 c3         1 B98       0.124800
     11 C12          3.6710     0.0540     6.3770 c3         1 B98      -0.026300
     12 C1          -2.7020    -0.0030    -0.0820 c3         1 B98       0.243700
     13 C13          4.1130    -0.5580     7.7080 c3         1 B98      -0.058200
     14 N16          1.7230     0.0200     4.8650 nu         1 B98      -0.363000
     15 N11          4.7720    -0.0090     5.4470 ns         1 B98      -0.213900
     16 N14          5.3330     0.1130     8.1740 nz         1 B98       0.074400
     17 O10          5.7960     0.0320     3.5830 o          1 B98      -0.645500
     18 O2          -2.0610    -0.0020     1.1950 os         1 B98      -0.302900
     19 S7           3.8090    -0.0070     1.5090 ss         1 B98      -0.094500
     20 H4          -0.5400    -0.0020    -0.9390 ha         1 B98       0.133000
     21 H5           1.9130     0.0000    -0.9400 ha         1 B98       0.119000
     22 H19         -0.5750     0.0020     3.3330 ha         1 B98       0.126000
     23 H15          1.7870    -0.8490     6.7250 h1         1 B98       0.049700
     24 H15A         2.7620    -1.6390     5.4870 h1         1 B98       0.049700
     25 H12          3.4100     1.0930     6.5350 h1         1 B98       0.041700
     26 H1          -2.4070    -0.8880    -0.6330 h1         1 B98       0.003700
     27 H1A         -3.7770    -0.0040     0.0530 h1         1 B98       0.003700
     28 H1B         -2.4080     0.8810    -0.6350 h1         1 B98       0.003700
     29 H13          3.3270    -0.4310     8.4430 hx         1 B98       0.095200
     30 H13A         4.3120    -1.6140     7.5710 hx         1 B98       0.095200
     31 HN16         1.5690     0.9660     5.1550 hn         1 B98       0.267800
     32 HN11         5.6870    -0.0740     5.8470 hn         1 B98       0.155500
     33 HN14         5.3770     0.0690     9.1730 hn         1 B98       0.230800
     34 HN1A         6.1350    -0.3420     7.7840 hn         1 B98       0.230800
     35 H143         5.3190     1.0710     7.8840 hn         1 B98       0.230800
@<TRIPOS>BOND
     1     1     2 ar  
     2     1     6 ar  
     3     1    20 1   
     4     2     7 ar  
     5     2    21 1   
     6     3     4 ar  
     7     3     6 ar  
     8     3    22 1   
     9     4     5 1   
    10     4     7 ar  
    11     5     8 2   
    12     5    14 1   
    13     6    18 1   
    14     7    19 1   
    15     8     9 1   
    16     8    19 1   
    17     9    15 1   
    18     9    17 2   
    19    10    11 1   
    20    10    14 1   
    21    10    23 1   
    22    10    24 1   
    23    11    13 1   
    24    11    15 1   
    25    11    25 1   
    26    12    18 1   
    27    12    26 1   
    28    12    27 1   
    29    12    28 1   
    30    13    16 1   
    31    13    29 1   
    32    13    30 1   
    33    14    31 1   
    34    15    32 1   
    35    16    33 1   
    36    16    34 1   
    37    16    35 1   
@<TRIPOS>SUBSTRUCTURE
     1 B98         1 TEMP              0 ****  ****    0 ROOT
