@<TRIPOS>MOLECULE
B99
   61    66     1     0     0
SMALL
bcc


@<TRIPOS>ATOM
      1 C1          0.3400    0.8980   -0.0290 c3        1 B99     -0.043900
      2 C2          1.1280   -0.2310   -0.5430 cc        1 B99     -0.085300
      3 N1          1.5040   -1.3470    0.2030 na        1 B99      0.061800
      4 N2          2.2240   -2.2380   -0.4670 nc        1 B99     -0.257400
      5 C3          2.3630   -1.7350   -1.7390 ca        1 B99     -0.079000
      6 C4          3.0430   -2.2490   -2.8800 ca        1 B99     -0.080000
      7 C5          3.0240   -1.5190   -4.0350 ca        1 B99     -0.125000
      8 C6          2.3400   -0.2630   -4.1320 cp        1 B99     -0.094000
      9 C7          1.6690    0.2670   -3.0520 ca        1 B99     -0.052000
     10 C8          1.6720   -0.4460   -1.8370 ca        1 B99     -0.152000
     11 C9          2.3250    0.4220   -5.4270 cp        1 B99     -0.124300
     12 C10         1.1830    0.2690   -6.2260 ca        1 B99     -0.097000
     13 C11         1.1470    0.8900   -7.4770 ca        1 B99     -0.097200
     14 O1         -0.0270    0.8240   -8.2220 os        1 B99     -0.341900
     15 C12         0.1170    0.2230   -9.5040 c3        1 B99      0.101400
     16 C13        -0.0480   -1.3050   -9.3930 c3        1 B99      0.084500
     17 N3         -1.2630   -1.6500   -8.5800 n4        1 B99     -0.831600
     18 C14        -0.1140   -1.9370  -10.7910 c3        1 B99     -0.011200
     19 C15        -0.4700   -3.3570  -10.7250 cc        1 B99     -0.248400
     20 C16         0.4040   -4.4490  -10.8050 cd        1 B99     -0.042100
     21 N4         -0.3060   -5.6360  -10.7070 na        1 B99     -0.167400
     22 C17        -1.6680   -5.3330  -10.5940 ca        1 B99     -0.047200
     23 C18        -2.7890   -6.1740  -10.4830 ca        1 B99     -0.112000
     24 C19        -4.0360   -5.5750  -10.4020 ca        1 B99     -0.105000
     25 C20        -4.1870   -4.1750  -10.4440 ca        1 B99     -0.118000
     26 C21        -3.0900   -3.3350  -10.5480 ca        1 B99     -0.150000
     27 C22        -1.8100   -3.8960  -10.6070 ca        1 B99     -0.118800
     28 C23         2.2520    1.6630   -7.8940 ca        1 B99      0.405200
     29 N5          3.3460    1.8150   -7.1430 nb        1 B99     -0.645000
     30 C24         3.4050    1.2140   -5.9170 ca        1 B99      0.548800
     31 C25         4.6160    1.4250   -5.1490 cc        1 B99     -0.325800
     32 C26         5.8610    1.9590   -5.6870 cc        1 B99     -0.220300
     33 C27         6.7480    2.0210   -4.6370 cd        1 B99      0.233600
     34 O2          6.1360    1.5620   -3.4640 os        1 B99     -0.347800
     35 C28         4.8410    1.2050   -3.7960 cd        1 B99      0.305600
     36 H1          0.8780    1.4130    0.8080 hc        1 B99      0.062700
     37 H1A        -0.6560    0.5550    0.3490 hc        1 B99      0.062700
     38 H1B         0.1740    1.6380   -0.8510 hc        1 B99      0.062700
     39 H4          3.5710   -3.2120   -2.8080 ha        1 B99      0.155000
     40 H5          3.5550   -1.8860   -4.9270 ha        1 B99      0.135000
     41 H7          1.1420    1.2300   -3.1170 ha        1 B99      0.141000
     42 H10         0.3250   -0.3110   -5.8580 ha        1 B99      0.134000
     43 H12        -0.7030    0.6800  -10.1220 h1        1 B99      0.095200
     44 H12A        1.1140    0.4400   -9.9670 h1        1 B99      0.095200
     45 H13         0.8340   -1.7310   -8.8260 hx        1 B99      0.111700
     46 HN3        -1.1810   -1.2120   -7.6560 hn        1 B99      0.463133
     47 HN3A       -1.3420   -2.6720   -8.5010 hn        1 B99      0.463133
     48 H14        -0.8610   -1.3820  -11.4230 hc        1 B99      0.086200
     49 H14A        0.8980   -1.8000  -11.2620 hc        1 B99      0.086200
     50 H16         1.4920   -4.4520  -10.9280 h4        1 B99      0.184000
     51 H18        -2.6790   -7.2680  -10.4720 ha        1 B99      0.155000
     52 H19        -4.9360   -6.2060  -10.3200 ha        1 B99      0.155000
     53 H20        -5.2020   -3.7500  -10.4080 ha        1 B99      0.148000
     54 H21        -3.2300   -2.2490  -10.6480 ha        1 B99      0.117000
     55 H23         2.2510    2.1880   -8.8670 h4        1 B99      0.035100
     56 H26         6.0270    2.2510   -6.7210 ha        1 B99      0.179000
     57 H27         7.7800    2.3360   -4.5080 h4        1 B99      0.066100
     58 H28         4.2440    0.8280   -2.9660 h4        1 B99      0.073100
     59 HN1         1.2910   -1.5070    1.1640 hn        1 B99      0.331700
     60 HN4         0.0690   -6.5460  -10.7970 hn        1 B99      0.321700
     61 H33        -2.1030   -1.2970   -9.0470 hn        1 B99      0.463133
@<TRIPOS>BOND
     1    1    2 1   
     2    1   36 1   
     3    1   37 1   
     4    1   38 1   
     5    2    3 1   
     6    2   10 2   
     7    3    4 1   
     8    3   59 1   
     9    4    5 2   
    10    5    6 ar  
    11    5   10 ar  
    12    6    7 ar  
    13    6   39 1   
    14    7    8 ar  
    15    7   40 1   
    16    8    9 ar  
    17    8   11 1   
    18    9   10 ar  
    19    9   41 1   
    20   11   12 ar  
    21   11   30 ar  
    22   12   13 ar  
    23   12   42 1   
    24   13   14 1   
    25   13   28 ar  
    26   14   15 1   
    27   15   16 1   
    28   15   43 1   
    29   15   44 1   
    30   16   17 1   
    31   16   18 1   
    32   16   45 1   
    33   17   46 1   
    34   17   47 1   
    35   17   61 1   
    36   18   19 1   
    37   18   48 1   
    38   18   49 1   
    39   19   20 2   
    40   19   27 1   
    41   20   21 1   
    42   20   50 1   
    43   21   22 1   
    44   21   60 1   
    45   22   23 ar  
    46   22   27 ar  
    47   23   24 ar  
    48   23   51 1   
    49   24   25 ar  
    50   24   52 1   
    51   25   26 ar  
    52   25   53 1   
    53   26   27 ar  
    54   26   54 1   
    55   28   29 ar  
    56   28   55 1   
    57   29   30 ar  
    58   30   31 1   
    59   31   32 1   
    60   31   35 2   
    61   32   33 2   
    62   32   56 1   
    63   33   34 1   
    64   33   57 1   
    65   34   35 1   
    66   35   58 1   
@<TRIPOS>SUBSTRUCTURE
     1 B99         1 TEMP              0 ****  ****    0 ROOT
