@<TRIPOS>MOLECULE
B9A
  120   126     1     0     0
SMALL
bcc


@<TRIPOS>ATOM
      1 C1A        -0.0030   -2.3940    2.6550 ca        1 B9A     -0.092000
      2 C2A         0.8740   -2.6680    3.6650 ca        1 B9A     -0.121000
      3 C3A         0.7520   -2.0080    4.9150 ca        1 B9A     -0.057000
      4 C4A        -0.1870   -1.0280    5.1170 ca        1 B9A     -0.168600
      5 C5A        -3.8080    1.7060    3.4730 ca        1 B9A     -0.209300
      6 C6A        -4.8530    1.9030    2.6200 ca        1 B9A     -0.086000
      7 C7A        -5.0290    1.0610    1.4870 ca        1 B9A     -0.134000
      8 C8A        -4.1340    0.0650    1.2230 ca        1 B9A     -0.105000
      9 C9A        -2.0360   -1.1820    1.8230 ca        1 B9A      0.226600
     10 N9A        -2.1350   -2.0170    0.7030 nh        1 B9A     -0.759600
     11 NAA        -1.9120    0.4070    4.1910 nb        1 B9A     -0.733000
     12 CBA        -2.8560    0.6390    3.2500 ca        1 B9A      0.451600
     13 CCA        -2.9980   -0.1590    2.0610 ca        1 B9A     -0.181300
     14 CDA        -1.0340   -1.4170    2.8130 ca        1 B9A     -0.197300
     15 CEA        -1.0730   -0.6430    4.0290 ca        1 B9A      0.469600
     16 C15        -2.0930   -1.4920   -0.6360 c3        1 B9A      0.207800
     17 C16        -3.0070   -2.2860   -1.5810 c3        1 B9A     -0.139400
     18 C17        -2.7220   -2.0120   -3.0480 c3        1 B9A      0.107800
     19 N18        -3.2850   -0.7080   -3.5330 n4        1 B9A     -0.769000
     20 C19        -3.1000   -0.5390   -5.0080 c3        1 B9A      0.102800
     21 C20        -3.6070    0.7910   -5.5550 c3        1 B9A     -0.113400
     22 C21        -2.5350    1.8630   -5.5760 c3        1 B9A     -0.113400
     23 C22        -3.0820    3.1190   -6.2550 c3        1 B9A      0.102800
     24 N23        -2.0580    4.1880   -6.4070 n4        1 B9A     -0.776000
     25 C24        -2.6370    5.4650   -6.9410 c3        1 B9A      0.116800
     26 C25        -1.5960    6.5690   -7.0570 c3        1 B9A     -0.120400
     27 C26        -1.0460    7.0410   -5.7130 c3        1 B9A      0.130800
     28 C28        -0.3650   -0.4590    6.4700 c3        1 B9A      0.110000
     29 S29         0.8930    0.7730    6.8720 ss        1 B9A     -0.443200
     30 C30         1.7670    0.0370    8.2320 c3        1 B9A     -0.033300
     31 C31         2.9690    0.8730    8.6070 c3        1 B9A      0.120800
     32 N32         2.6300    2.2010    9.2220 n4        1 B9A     -0.671800
     33 C33         2.3240    3.2680    8.1980 c         1 B9A      0.549100
     34 O34         3.1180    3.3840    7.2750 o         1 B9A     -0.411100
     35 C35         1.1050    4.1250    8.4260 c3        1 B9A     -0.149400
     36 C36         0.1590    4.0710    7.2390 c3        1 B9A     -0.150400
     37 C37         0.7040    4.8930    6.0620 c3        1 B9A      0.334300
     38 O38         0.7330    6.2680    6.3050 oh        1 B9A     -0.539800
     39 N39        -0.0590    4.6180    4.7680 n4        1 B9A     -0.813000
     40 C40        -1.4000    5.2650    4.6920 c3        1 B9A      0.104800
     41 C41        -2.0950    4.9810    3.3690 c3        1 B9A     -0.070300
     42 S42        -0.9870    5.0800    1.9990 ss        1 B9A     -0.327200
     43 C43        -1.3980    6.6150    1.1610 c3        1 B9A      0.073000
     44 C1B         2.3800    6.7790   -4.1490 ca        1 B9A     -0.150000
     45 C2B         3.6440    7.0470   -3.7050 ca        1 B9A     -0.076000
     46 C3B         3.9230    7.1140   -2.3090 ca        1 B9A     -0.087000
     47 C4B         2.9290    6.9370   -1.3950 ca        1 B9A     -0.178300
     48 C5B        -1.7210    6.3380   -0.2580 ca        1 B9A     -0.118600
     49 C6B        -3.0210    6.1160   -0.6280 ca        1 B9A     -0.096000
     50 C7B        -3.3710    5.8870   -1.9860 ca        1 B9A     -0.126000
     51 C8B        -2.4130    5.9060   -2.9580 ca        1 B9A     -0.120000
     52 C9B        -0.0250    6.2610   -3.6370 ca        1 B9A      0.127600
     53 NAB         0.6060    6.5630   -0.8810 nb        1 B9A     -0.672000
     54 CBB        -0.6710    6.3550   -1.2690 ca        1 B9A      0.434600
     55 CCB        -1.0430    6.1650   -2.6500 ca        1 B9A     -0.153300
     56 CDB         1.3010    6.5630   -3.2330 ca        1 B9A     -0.150300
     57 CEB         1.5720    6.6740   -1.8200 ca        1 B9A      0.444600
     58 N9B        -0.3300    5.9820   -5.0050 nh        1 B9A     -0.761600
     59 H1A         0.1070   -2.9410    1.7050 ha        1 B9A      0.137000
     60 H2A         1.6690   -3.4220    3.5380 ha        1 B9A      0.168000
     61 H3A         1.4220   -2.3180    5.7340 ha        1 B9A      0.145000
     62 H5A        -3.7080    2.3140    4.3860 ha        1 B9A      0.137000
     63 H6A        -5.6000    2.6910    2.8120 ha        1 B9A      0.154000
     64 H7A        -5.9220    1.2060    0.8580 ha        1 B9A      0.148000
     65 H8A        -4.3240   -0.6230    0.3850 ha        1 B9A      0.124000
     66 H9A        -1.6750   -2.9000    0.7980 hn        1 B9A      0.432800
     67 H151       -2.4070   -0.4100   -0.6280 h1        1 B9A      0.037700
     68 H152       -1.0390   -1.5350   -1.0460 h1        1 B9A      0.037700
     69 H161       -4.0850   -2.0990   -1.3260 hc        1 B9A      0.106700
     70 H162       -2.8380   -3.3930   -1.4340 hc        1 B9A      0.106700
     71 H171       -3.1860   -2.8300   -3.6750 hx        1 B9A      0.118700
     72 H172       -1.6110   -1.9990   -3.2420 hx        1 B9A      0.118700
     73 H18        -2.8300    0.0630   -3.0340 hn        1 B9A      0.448300
     74 H191       -2.0020   -0.6680   -5.2360 hx        1 B9A      0.124200
     75 H192       -3.6620   -1.3840   -5.5100 hx        1 B9A      0.124200
     76 H201       -3.9510    0.5920   -6.6110 hc        1 B9A      0.098700
     77 H202       -4.5080    1.1530   -4.9910 hc        1 B9A      0.098700
     78 H211       -1.6380    1.4820   -6.1370 hc        1 B9A      0.068700
     79 H212       -2.2070    2.1040   -4.5310 hc        1 B9A      0.068700
     80 H221       -3.4750    2.8620   -7.2830 hx        1 B9A      0.113700
     81 H222       -3.9360    3.5410   -5.6480 hx        1 B9A      0.113700
     82 H23        -1.6130    4.3970   -5.4900 hn        1 B9A      0.466300
     83 H241       -3.4610    5.7850   -6.2400 hx        1 B9A      0.109200
     84 H242       -3.0830    5.2500   -7.9550 hx        1 B9A      0.109200
     85 H251       -0.7620    6.2580   -7.7410 hc        1 B9A      0.104700
     86 H252       -2.1070    7.4480   -7.5450 hc        1 B9A      0.104700
     87 H261       -1.8920    7.4070   -5.0640 h1        1 B9A      0.085200
     88 H262       -0.3780    7.9320   -5.9120 h1        1 B9A      0.085200
     89 H281       -1.3440    0.0690    6.5910 h1        1 B9A      0.102700
     90 H282       -0.3130   -1.2700    7.2400 h1        1 B9A      0.102700
     91 H301        2.1480   -0.9770    7.9310 h1        1 B9A      0.113700
     92 H302        1.0750   -0.1180    9.0980 h1        1 B9A      0.113700
     93 H311        3.5850    0.3050    9.3710 hx        1 B9A      0.138700
     94 H312        3.6180    1.0680    7.6990 hx        1 B9A      0.138700
     95 H32         3.4480    2.5140    9.7700 hn        1 B9A      0.475300
     96 H351        1.4770    5.1830    8.5820 hc        1 B9A      0.127700
     97 H352        0.5380    3.8280    9.3500 hc        1 B9A      0.127700
     98 H361       -0.8360    4.4810    7.5660 hc        1 B9A      0.110700
     99 H362        0.0050    2.9910    6.9380 hc        1 B9A      0.110700
    100 HC37        1.7880    4.6160    5.8380 hx        1 B9A      0.152700
    101 HO38       -0.0430    6.5370    6.8250 ho        1 B9A      0.444000
    102 H39        -0.1620    3.6030    4.6590 hn        1 B9A      0.472300
    103 H401       -2.0300    4.8820    5.5450 hx        1 B9A      0.108700
    104 H402       -1.2490    6.3780    4.8190 hx        1 B9A      0.108700
    105 H411       -2.5150    3.9390    3.3680 h1        1 B9A      0.116700
    106 H412       -2.9580    5.6880    3.2750 h1        1 B9A      0.116700
    107 H431       -0.5110    7.2920    1.2620 h1        1 B9A      0.103200
    108 H432       -2.2650    7.1020    1.6730 h1        1 B9A      0.103200
    109 H3B         4.9570    7.3280   -1.9880 ha        1 B9A      0.169000
    110 H4B         3.1350    7.0090   -0.3140 ha        1 B9A      0.160000
    111 H6B        -3.8300    6.1310    0.1200 ha        1 B9A      0.146000
    112 H7B        -4.4310    5.7230   -2.2320 ha        1 B9A      0.146000
    113 H8B        -2.7120    5.7470   -4.0050 ha        1 B9A      0.101000
    114 H9B         0.5180    5.7640   -5.5030 hn        1 B9A      0.384800
    115 H1B         2.1980    6.7690   -5.2340 ha        1 B9A      0.131000
    116 H182       -4.2890   -0.6750   -3.3120 hn        1 B9A      0.448300
    117 H232       -1.3190    3.8690   -7.0440 hn        1 B9A      0.466300
    118 H322        1.8340    2.0900    9.8610 hn        1 B9A      0.475300
    119 H392        0.4930    4.9790    3.9630 hn        1 B9A      0.472300
    120 H2B         4.4670    7.2270   -4.4180 ha        1 B9A      0.168000
@<TRIPOS>BOND
     1    1    2 ar  
     2    1   14 ar  
     3    1   59 1   
     4    2    3 ar  
     5    2   60 1   
     6    3    4 ar  
     7    3   61 1   
     8    4   15 ar  
     9    4   28 1   
    10    5    6 ar  
    11    5   12 ar  
    12    5   62 1   
    13    6    7 ar  
    14    6   63 1   
    15    7    8 ar  
    16    7   64 1   
    17    8   13 ar  
    18    8   65 1   
    19    9   10 1   
    20    9   13 ar  
    21    9   14 ar  
    22   10   16 1   
    23   10   66 1   
    24   11   12 ar  
    25   11   15 ar  
    26   12   13 ar  
    27   14   15 ar  
    28   16   17 1   
    29   16   67 1   
    30   16   68 1   
    31   17   18 1   
    32   17   69 1   
    33   17   70 1   
    34   18   19 1   
    35   18   71 1   
    36   18   72 1   
    37   19   20 1   
    38   19   73 1   
    39   19  116 1   
    40   20   21 1   
    41   20   74 1   
    42   20   75 1   
    43   21   22 1   
    44   21   76 1   
    45   21   77 1   
    46   22   23 1   
    47   22   78 1   
    48   22   79 1   
    49   23   24 1   
    50   23   80 1   
    51   23   81 1   
    52   24   25 1   
    53   24   82 1   
    54   24  117 1   
    55   25   26 1   
    56   25   83 1   
    57   25   84 1   
    58   26   27 1   
    59   26   85 1   
    60   26   86 1   
    61   27   58 1   
    62   27   87 1   
    63   27   88 1   
    64   28   29 1   
    65   28   89 1   
    66   28   90 1   
    67   29   30 1   
    68   30   31 1   
    69   30   91 1   
    70   30   92 1   
    71   31   32 1   
    72   31   93 1   
    73   31   94 1   
    74   32   33 1   
    75   32   95 1   
    76   32  118 1   
    77   33   34 2   
    78   33   35 1   
    79   35   36 1   
    80   35   96 1   
    81   35   97 1   
    82   36   37 1   
    83   36   98 1   
    84   36   99 1   
    85   37   38 1   
    86   37   39 1   
    87   37  100 1   
    88   38  101 1   
    89   39   40 1   
    90   39  102 1   
    91   39  119 1   
    92   40   41 1   
    93   40  103 1   
    94   40  104 1   
    95   41   42 1   
    96   41  105 1   
    97   41  106 1   
    98   42   43 1   
    99   43   48 1   
   100   43  107 1   
   101   43  108 1   
   102   44   45 ar  
   103   44   56 ar  
   104   44  115 1   
   105   45   46 ar  
   106   45  120 1   
   107   46   47 ar  
   108   46  109 1   
   109   47   57 ar  
   110   47  110 1   
   111   48   49 ar  
   112   48   54 ar  
   113   49   50 ar  
   114   49  111 1   
   115   50   51 ar  
   116   50  112 1   
   117   51   55 ar  
   118   51  113 1   
   119   52   55 ar  
   120   52   56 ar  
   121   52   58 1   
   122   53   54 ar  
   123   53   57 ar  
   124   54   55 ar  
   125   56   57 ar  
   126   58  114 1   
@<TRIPOS>SUBSTRUCTURE
     1 B9A         1 TEMP              0 ****  ****    0 ROOT
