@<TRIPOS>MOLECULE
B9K
   50    53     1     0     0
SMALL
bcc


@<TRIPOS>ATOM
      1 C17          0.0000     0.0000     0.0000 ca         1 B9K      -0.091000
      2 C20          1.3920    -0.0110     2.3980 ca         1 B9K      -0.127500
      3 C21          2.0830     0.0000     1.2030 ca         1 B9K      -0.091000
      4 C24         -1.0500    -1.1120     5.7690 c3         1 B9K       0.212900
      5 C26         -2.8730     0.0400     4.7280 c3         1 B9K       0.212900
      6 C01          0.6470     2.2220    -4.3720 ca         1 B9K      -0.278300
      7 C02          0.0830     2.2630    -3.1180 ca         1 B9K       0.456200
      8 N03          0.5700     1.5380    -2.1280 nb         1 B9K      -0.643000
      9 C04          1.6170     0.7410    -2.2900 ca         1 B9K       0.508200
     10 C05          2.2460     0.6400    -3.5220 ca         1 B9K      -0.308300
     11 C06          1.7580     1.3930    -4.5940 ca         1 B9K       0.096000
     12 C07          2.3900     1.3140    -5.9260 cc         1 B9K      -0.387600
     13 N08          3.7480     1.3450    -6.2010 na         1 B9K       0.302100
     14 C09          3.8790     1.2460    -7.5520 cc         1 B9K       0.321800
     15 N10          2.6800     1.1580    -8.0860 nd         1 B9K      -0.624000
     16 C11          1.7550     1.1900    -7.1220 cd         1 B9K       0.335600
     17 C12          0.2640     1.1080    -7.3250 c3         1 B9K      -0.004400
     18 S13          5.4010     1.2360    -8.4380 ss         1 B9K      -0.407400
     19 C14          4.7800     1.0790   -10.1310 c3         1 B9K       0.141000
     20 C16          1.3890     0.0000     0.0000 ca         1 B9K      -0.019400
     21 C18         -0.6900     0.0010     1.1950 ca         1 B9K      -0.127500
     22 C19          0.0040    -0.0050     2.3990 ca         1 B9K       0.005600
     23 N22         -0.6960    -0.0160     3.6100 nh         1 B9K      -0.358000
     24 C23         -0.3070    -1.1710     4.4320 c3         1 B9K       0.094300
     25 O25         -2.4590    -1.0720     5.5250 os         1 B9K      -0.410600
     26 C27         -2.1480    -0.0070     3.3800 c3         1 B9K       0.094300
     27 H1          -0.5420     0.0020    -0.9380 ha         1 B9K       0.115500
     28 H2           1.9340    -0.0130     3.3370 ha         1 B9K       0.117000
     29 H3           3.1660    -0.0020     1.2030 ha         1 B9K       0.115500
     30 H4          -0.8100    -1.9920     6.3540 h1         1 B9K       0.013450
     31 H5          -0.7520    -0.2210     6.3080 h1         1 B9K       0.013450
     32 H6          -3.9420    -0.0120     4.5650 h1         1 B9K       0.013450
     33 H7          -2.6240     0.9630     5.2390 h1         1 B9K       0.013450
     34 H9          -0.7750     2.9010    -2.9400 h4         1 B9K      -0.021900
     35 H10          3.1010    -0.0120    -3.6510 ha         1 B9K       0.116000
     36 H11          4.4900     1.4250    -5.5350 hn         1 B9K       0.128700
     37 H13         -0.1720     2.0940    -7.2100 hc         1 B9K       0.011033
     38 H14         -0.1650     0.4360    -6.5910 hc         1 B9K       0.011033
     39 H15          0.0550     0.7360    -8.3210 hc         1 B9K       0.011033
     40 H16          4.2130     0.1610   -10.2240 h1         1 B9K       0.041033
     41 H17          4.1420     1.9240   -10.3610 h1         1 B9K       0.041033
     42 H18          5.6150     1.0590   -10.8210 h1         1 B9K       0.041033
     43 H20         -1.7740     0.0030     1.1950 ha         1 B9K       0.117000
     44 H21         -0.5680    -2.0860     3.9150 h1         1 B9K       0.026450
     45 H22          0.7610    -1.1420     4.6110 h1         1 B9K       0.026450
     46 H23         -2.4150     0.8660     2.7970 h1         1 B9K       0.026450
     47 H24         -2.4350    -0.9050     2.8480 h1         1 B9K       0.026450
     48 N15          2.0890    -0.0010    -1.2130 nu         1 B9K      -0.318300
     49 H8           0.2400     2.8210    -5.1780 ha         1 B9K       0.128000
     50 H19          2.9230    -0.5460    -1.3090 hn         1 B9K       0.284800
@<TRIPOS>BOND
     1     1    20 ar  
     2     1    21 ar  
     3     1    27 1   
     4     2     3 ar  
     5     2    22 ar  
     6     2    28 1   
     7     3    20 ar  
     8     3    29 1   
     9     4    24 1   
    10     4    25 1   
    11     4    30 1   
    12     4    31 1   
    13     5    25 1   
    14     5    26 1   
    15     5    32 1   
    16     5    33 1   
    17     6     7 ar  
    18     6    11 ar  
    19     6    49 1   
    20     7     8 ar  
    21     7    34 1   
    22     8     9 ar  
    23     9    10 ar  
    24     9    48 1   
    25    10    11 ar  
    26    10    35 1   
    27    11    12 1   
    28    12    13 1   
    29    12    16 2   
    30    13    14 1   
    31    13    36 1   
    32    14    15 2   
    33    14    18 1   
    34    15    16 1   
    35    16    17 1   
    36    17    37 1   
    37    17    38 1   
    38    17    39 1   
    39    18    19 1   
    40    19    40 1   
    41    19    41 1   
    42    19    42 1   
    43    20    48 1   
    44    21    22 ar  
    45    21    43 1   
    46    22    23 1   
    47    23    24 1   
    48    23    26 1   
    49    24    44 1   
    50    24    45 1   
    51    26    46 1   
    52    26    47 1   
    53    48    50 1   
@<TRIPOS>SUBSTRUCTURE
     1 B9K         1 TEMP              0 ****  ****    0 ROOT
