@<TRIPOS>MOLECULE
B9M
   45    44     1     0     0
SMALL
bcc


@<TRIPOS>ATOM
      1 C16        -0.1330   -0.0800    0.0600 c3        1 B9M     -0.095100
      2 C15         1.3670    0.0470    0.0020 c3        1 B9M     -0.077400
      3 C14         1.9810   -0.1040    1.3850 c3        1 B9M      0.000700
      4 C13         3.4070    0.0110    1.3640 c1        1 B9M     -0.126100
      5 C12         4.6030    0.1060    1.3580 cg        1 B9M     -0.165300
      6 C11         5.9990    0.2210    1.3170 ce        1 B9M     -0.036700
      7 C10         6.8140    0.1520    2.3810 c2        1 B9M     -0.138200
      8 C9          6.3700   -0.0350    3.7810 c3        1 B9M     -0.055200
      9 C8          7.3090   -0.9450    4.5490 c3        1 B9M     -0.076400
     10 C7          6.8490   -1.1170    5.9810 c3        1 B9M     -0.079400
     11 C6          7.7850   -2.0210    6.7530 c3        1 B9M     -0.079400
     12 C5          7.3250   -2.1950    8.1840 c3        1 B9M     -0.079400
     13 C4          8.2640   -3.0960    8.9570 c3        1 B9M     -0.078400
     14 C3          7.8030   -3.2710   10.3880 c3        1 B9M     -0.078400
     15 C2          8.7440   -4.1700   11.1580 c3        1 B9M     -0.084400
     16 C1          8.2700   -4.3380   12.5910 c3        1 B9M      0.131400
     17 O           9.2020   -5.1890   13.2410 oh        1 B9M     -0.601800
     18 H161       -0.5710    0.7090    0.7190 hc        1 B9M      0.034700
     19 H162       -0.5700    0.0330   -0.9620 hc        1 B9M      0.034700
     20 H163       -0.4310   -1.0780    0.4630 hc        1 B9M      0.034700
     21 H151        1.6480    1.0450   -0.4250 hc        1 B9M      0.047700
     22 H152        1.7880   -0.7370   -0.6810 hc        1 B9M      0.047700
     23 H141        1.5540    0.6830    2.0700 hc        1 B9M      0.058700
     24 H142        1.6950   -1.1060    1.8130 hc        1 B9M      0.058700
     25 H11         6.4190    0.3800    0.3050 ha        1 B9M      0.135000
     26 H10         7.9040    0.2500    2.2390 ha        1 B9M      0.124000
     27 H91C        6.3330    0.9710    4.2830 hc        1 B9M      0.054700
     28 H92C        5.3290   -0.4560    3.8110 hc        1 B9M      0.054700
     29 H81C        7.3560   -1.9470    4.0460 hc        1 B9M      0.041700
     30 H82C        8.3460   -0.5180    4.5350 hc        1 B9M      0.041700
     31 H71C        6.7950   -0.1150    6.4820 hc        1 B9M      0.040700
     32 H72C        5.8130   -1.5490    5.9940 hc        1 B9M      0.040700
     33 H61C        8.8210   -1.5890    6.7400 hc        1 B9M      0.040200
     34 H62C        7.8400   -3.0230    6.2510 hc        1 B9M      0.040200
     35 H51C        6.2910   -2.6290    8.1970 hc        1 B9M      0.039700
     36 H52C        7.2690   -1.1920    8.6850 hc        1 B9M      0.039700
     37 H41C        8.3210   -4.0980    8.4560 hc        1 B9M      0.041700
     38 H42C        9.2980   -2.6620    8.9450 hc        1 B9M      0.041700
     39 H31C        7.7450   -2.2680   10.8890 hc        1 B9M      0.039700
     40 H32C        6.7690   -3.7070   10.4000 hc        1 B9M      0.039700
     41 H21C        8.8050   -5.1780   10.6690 hc        1 B9M      0.055700
     42 H22C        9.7790   -3.7400   11.1590 hc        1 B9M      0.055700
     43 H11C        8.2310   -3.3450   13.1140 h1        1 B9M      0.019700
     44 H12C        7.2470   -4.8010   12.6170 h1        1 B9M      0.019700
     45 H           8.8940   -5.2920   14.1480 ho        1 B9M      0.398000
@<TRIPOS>BOND
     1    1    2 1   
     2    1   18 1   
     3    1   19 1   
     4    1   20 1   
     5    2    3 1   
     6    2   21 1   
     7    2   22 1   
     8    3    4 1   
     9    3   23 1   
    10    3   24 1   
    11    4    5 3   
    12    5    6 1   
    13    6    7 2   
    14    6   25 1   
    15    7    8 1   
    16    7   26 1   
    17    8    9 1   
    18    8   27 1   
    19    8   28 1   
    20    9   10 1   
    21    9   29 1   
    22    9   30 1   
    23   10   11 1   
    24   10   31 1   
    25   10   32 1   
    26   11   12 1   
    27   11   33 1   
    28   11   34 1   
    29   12   13 1   
    30   12   35 1   
    31   12   36 1   
    32   13   14 1   
    33   13   37 1   
    34   13   38 1   
    35   14   15 1   
    36   14   39 1   
    37   14   40 1   
    38   15   16 1   
    39   15   41 1   
    40   15   42 1   
    41   16   17 1   
    42   16   43 1   
    43   16   44 1   
    44   17   45 1   
@<TRIPOS>SUBSTRUCTURE
     1 B9M         1 TEMP              0 ****  ****    0 ROOT
