@<TRIPOS>MOLECULE
molecule
   45    44     1     0     0
SMALL
bcc


@<TRIPOS>ATOM
      1 C16          0.0000     0.0000     0.0000 c3         1 B9M      -0.105100
      2 C15          1.5290     0.0000     0.0000 c3         1 B9M      -0.075400
      3 C14          2.0400     0.0000     1.4420 c3         1 B9M       0.023700
      4 C13          3.5110    -0.0000     1.4420 c1         1 B9M      -0.146100
      5 C12          4.6860     0.0160     1.4290 cg         1 B9M      -0.167300
      6 C11          6.1530    -0.0260     1.3370 ce         1 B9M       0.009300
      7 C10          7.0320     0.2160     2.0670 c2         1 B9M      -0.160200
      8 C9           8.4450     0.2320     2.2600 c3         1 B9M      -0.013200
      9 C8           8.9890     1.1320     2.8660 c3         1 B9M      -0.049400
     10 C7          10.3060     0.5190     3.6330 c3         1 B9M      -0.110400
     11 C6          10.9390     1.3990     4.6890 c3         1 B9M      -0.086400
     12 C5          11.9620     0.6500     5.7530 c3         1 B9M      -0.076400
     13 C4          12.8150     1.4400     6.3890 c3         1 B9M      -0.078400
     14 C3          13.3620     1.2080     7.7740 c3         1 B9M      -0.076400
     15 C2          14.4240     1.7120     8.2560 c3         1 B9M      -0.087400
     16 C1          14.9920     1.3330     9.5340 c3         1 B9M       0.134400
     17 O           16.1040     2.0320    10.1090 oh         1 B9M      -0.578800
     18 H161        -0.3190     0.3450    -0.9760 hc         1 B9M       0.031700
     19 H162        -0.2690     0.8920     0.5520 hc         1 B9M       0.031700
     20 H163        -0.6180    -0.8550     0.2470 hc         1 B9M       0.031700
     21 H151         1.9780     0.7420    -0.6490 hc         1 B9M       0.047200
     22 H152         1.6500    -0.8180    -0.6990 hc         1 B9M       0.047200
     23 H141         2.0980     1.0110     1.8260 hc         1 B9M       0.077700
     24 H142         1.7150    -0.7960     2.1010 hc         1 B9M       0.077700
     25 H11          6.5890    -0.6870     0.5970 ha         1 B9M       0.097000
     26 H10          6.5860     0.7830     2.8760 ha         1 B9M       0.079000
     27 H91C         8.7100    -0.8160     2.3310 hc         1 B9M       0.052700
     28 H92C         8.7740     0.5420     1.2760 hc         1 B9M       0.052700
     29 H81C         9.5240     1.9130     2.3380 hc         1 B9M       0.057200
     30 H82C         8.5210     1.3660     3.8140 hc         1 B9M       0.057200
     31 H71C        10.8320    -0.2290     3.0530 hc         1 B9M       0.036200
     32 H72C         9.9840    -0.1900     4.3870 hc         1 B9M       0.036200
     33 H61C        10.5670     2.2740     5.2080 hc         1 B9M       0.037700
     34 H62C        11.6330     1.9270     4.0450 hc         1 B9M       0.037700
     35 H51C        11.2060     0.2520     6.4180 hc         1 B9M       0.033700
     36 H52C        12.4340    -0.2030     5.2810 hc         1 B9M       0.033700
     37 H41C        13.6830     1.5540     5.7500 hc         1 B9M       0.028200
     38 H42C        12.2620     2.3710     6.3560 hc         1 B9M       0.028200
     39 H31C        13.6630     0.2540     7.3580 hc         1 B9M       0.043700
     40 H32C        12.3910     1.2120     8.2540 hc         1 B9M       0.043700
     41 H21C        15.3260     1.6340     7.6620 hc         1 B9M       0.042200
     42 H22C        14.1790     2.7460     8.0430 hc         1 B9M       0.042200
     43 H11C        14.1250     1.7150    10.0590 h1         1 B9M       0.025700
     44 H12C        14.8390     0.2640     9.4420 h1         1 B9M       0.025700
     45 H           16.2630     1.6920    10.9740 ho         1 B9M       0.410000
@<TRIPOS>BOND
     1     1     2 1
     2     2     3 1
     3     3     4 1
     4     4     5 3
     5     5     6 1
     6     6     7 2
     7     7     8 1
     8     8     9 1
     9     9    10 1
    10    10    11 1
    11    11    12 1
    12    12    13 1
    13    13    14 1
    14    14    15 1
    15    15    16 1
    16    16    17 1
    17     1    18 1
    18     1    19 1
    19     1    20 1
    20     2    21 1
    21     2    22 1
    22     3    23 1
    23     3    24 1
    24     6    25 1
    25     7    26 1
    26     8    27 1
    27     8    28 1
    28     9    29 1
    29     9    30 1
    30    10    31 1
    31    10    32 1
    32    11    33 1
    33    11    34 1
    34    12    35 1
    35    12    36 1
    36    13    37 1
    37    13    38 1
    38    14    39 1
    39    14    40 1
    40    15    41 1
    41    15    42 1
    42    16    43 1
    43    16    44 1
    44    17    45 1
@<TRIPOS>SUBSTRUCTURE
     1 B9M         1 TEMP              0 ****  ****    0 ROOT
