@<TRIPOS>MOLECULE
molecule
   52    54     1     0     0
SMALL
bcc


@<TRIPOS>ATOM
      1 O32          0.0000     0.0000     0.0000 o          1 B9N      -0.649800
      2 S13          1.4210     0.0000     0.0000 sy         1 B9N       1.296600
      3 O31          2.1990     0.0000     1.1890 o          1 B9N      -0.649800
      4 C14          1.9200    -1.4180    -0.9210 ca         1 B9N      -0.307500
      5 C19          1.3410    -1.6830    -2.1490 ca         1 B9N       0.112700
      6 C20          0.2850    -0.7590    -2.6990 c3         1 B9N      -0.188400
      7 C25          0.7790    -0.1380    -3.9810 c          1 B9N       0.898600
      8 O27          0.0010     0.7240    -4.6510 o          1 B9N      -0.844800
      9 O26          1.8770    -0.4170    -4.4020 o          1 B9N      -0.844800
     10 C21         -0.9920    -1.5530    -2.9770 c3         1 B9N      -0.020400
     11 C22         -2.1020    -0.5970    -3.4170 c3         1 B9N      -0.191400
     12 C23         -3.3610    -1.3800    -3.6920 c          1 B9N       0.897600
     13 O30         -3.3690    -2.5790    -3.5490 o          1 B9N      -0.888300
     14 O29         -4.4720    -0.7440    -4.0940 o          1 B9N      -0.888300
     15 C18          1.7320    -2.7940    -2.8700 ca         1 B9N      -0.096000
     16 C17          2.7000    -3.6420    -2.3650 ca         1 B9N      -0.097000
     17 C16          3.2780    -3.3770    -1.1370 ca         1 B9N      -0.195000
     18 C15          2.8920    -2.2620    -0.4180 ca         1 B9N      -0.053000
     19 C3           1.9180     1.4200    -0.9190 ca         1 B9N      -0.281500
     20 C2           1.0060     2.0690    -1.7310 ca         1 B9N      -0.011000
     21 C4           3.2180     1.8830    -0.8210 ca         1 B9N      -0.011000
     22 C5           3.6130     2.9940    -1.5390 ca         1 B9N      -0.134000
     23 C6           2.6990     3.6490    -2.3630 cp         1 B9N      -0.003000
     24 C1           1.3900     3.1810    -2.4530 ca         1 B9N      -0.134000
     25 C7           3.1170     4.8440    -3.1360 cp         1 B9N      -0.048000
     26 C12          2.2020     5.4990    -3.9590 ca         1 B9N      -0.080000
     27 C11          2.5950     6.6090    -4.6770 ca         1 B9N      -0.193000
     28 C10          3.8980     7.0750    -4.5800 ca         1 B9N       0.118100
     29 O28          4.2810     8.1700    -5.2880 os         1 B9N      -0.337900
     30 C29          5.6370     8.5960    -5.1410 c3         1 B9N       0.133700
     31 C9           4.8120     6.4270    -3.7600 ca         1 B9N      -0.193000
     32 C8           4.4230     5.3190    -3.0350 ca         1 B9N      -0.080000
     33 H1           0.0760     0.0210    -1.9770 hc         1 B9N       0.052700
     34 H3          -1.2990    -2.0720    -2.0760 hc         1 B9N       0.031700
     35 H4          -0.8050    -2.2750    -3.7630 hc         1 B9N       0.031700
     36 H5          -2.2900     0.1240    -2.6310 hc         1 B9N       0.062700
     37 H6          -1.7960    -0.0790    -4.3180 hc         1 B9N       0.062700
     38 H8           1.2790    -3.0020    -3.8320 ha         1 B9N       0.161000
     39 H9           3.0050    -4.5150    -2.9300 ha         1 B9N       0.106000
     40 H10          4.0380    -4.0390    -0.7410 ha         1 B9N       0.099000
     41 H11          3.3450    -2.0540     0.5440 ha         1 B9N       0.124000
     42 H12         -0.0120     1.7040    -1.8010 ha         1 B9N       0.162000
     43 H13          3.9270     1.3730    -0.1810 ha         1 B9N       0.162000
     44 H14          4.6320     3.3550    -1.4630 ha         1 B9N       0.130000
     45 H15          0.6750     3.6870    -3.0910 ha         1 B9N       0.130000
     46 H16          1.1850     5.1350    -4.0350 ha         1 B9N       0.147000
     47 H17          1.8850     7.1180    -5.3170 ha         1 B9N       0.129000
     48 H18          6.3020     7.7990    -5.4530 h1         1 B9N       0.032700
     49 H19          5.8090     9.4710    -5.7550 h1         1 B9N       0.032700
     50 H20          5.8280     8.8400    -4.1030 h1         1 B9N       0.032700
     51 H21          5.8280     6.7940    -3.6840 ha         1 B9N       0.129000
     52 H22          5.1360     4.8130    -2.3950 ha         1 B9N       0.147000
@<TRIPOS>BOND
     1    16    17 ar
     2    16    15 ar
     3    17    18 ar
     4    15     5 ar
     5    13    12 1
     6    18     4 ar
     7    12    14 1
     8    12    11 1
     9     5     4 ar
    10     5     6 1
    11     4     2 1
    12    11    10 1
    13    10     6 1
    14     1     2 2
    15     9     7 1
    16     6     7 1
    17     2     3 2
    18     2    19 1
    19     7     8 1
    20    21    19 ar
    21    21    22 ar
    22    19    20 ar
    23    22    23 ar
    24    20    24 ar
    25    23    24 ar
    26    23    25 1
    27    32    25 ar
    28    32    31 ar
    29    25    26 ar
    30    31    28 ar
    31    26    27 ar
    32    28    27 ar
    33    28    29 1
    34    30    29 1
    35     6    33 1
    36    10    34 1
    37    10    35 1
    38    11    36 1
    39    11    37 1
    40    15    38 1
    41    16    39 1
    42    17    40 1
    43    18    41 1
    44    20    42 1
    45    21    43 1
    46    22    44 1
    47    24    45 1
    48    26    46 1
    49    27    47 1
    50    30    48 1
    51    30    49 1
    52    30    50 1
    53    31    51 1
    54    32    52 1
@<TRIPOS>SUBSTRUCTURE
     1 B9N         1 TEMP              0 ****  ****    0 ROOT
