@<TRIPOS>MOLECULE
B9P
   55    60     1     0     0
SMALL
bcc


@<TRIPOS>ATOM
      1 O11          0.0000     0.0000     0.0000 o          1 B9P      -0.570100
      2 C11          1.2080     0.0000     0.0000 c          1 B9P       0.644700
      3 C10          1.9620     0.0000     1.3050 c3         1 B9P      -0.126400
      4 C9           0.9680     0.0010     2.4690 c3         1 B9P      -0.020400
      5 C8           1.7330     0.0010     3.7930 c3         1 B9P      -0.035400
      6 C7           0.7390     0.0020     4.9570 c3         1 B9P      -0.017400
      7 C2           1.5040     0.0030     6.2810 c3         1 B9P       0.065400
      8 S1           2.2980    -1.6310     6.5770 ss         1 B9P      -0.409200
      9 C6           2.2860    -1.4780     8.4090 c3         1 B9P       0.088700
     10 C5           0.9780    -0.7090     8.6780 c3         1 B9P      -0.001300
     11 N1          -0.1200    -1.6710     8.8640 ns         1 B9P      -0.214900
     12 C4           0.5350     0.1290     7.4720 c3         1 B9P       0.009700
     13 N2          -0.7680    -0.4430     7.0990 ns         1 B9P      -0.216900
     14 C3          -1.0590    -1.4500     7.9340 c          1 B9P       0.623500
     15 O3          -2.0810    -2.1040     7.8540 o          1 B9P      -0.723500
     16 C1           1.9440    -0.0070    -1.2760 ca         1 B9P      -0.195600
     17 C16          3.4050     0.1330    -1.2550 ca         1 B9P      -0.080000
     18 C15          4.1360     0.1370    -2.3490 ca         1 B9P      -0.093000
     19 C14          3.4780    -0.0070    -3.6590 ca         1 B9P      -0.021000
     20 C30          4.1430    -0.0120    -4.7890 ca         1 B9P      -0.094000
     21 C31          3.4220    -0.1580    -6.0710 ca         1 B9P      -0.073000
     22 C32          2.1160    -0.2830    -6.0790 ca         1 B9P      -0.040000
     23 C19          1.3390    -0.4330    -7.3220 ca         1 B9P      -0.084000
     24 C18          0.0310    -0.5540    -7.2550 ca         1 B9P      -0.098000
     25 C17         -0.7040    -0.5460    -5.9840 ca         1 B9P      -0.070000
     26 C34         -0.0940    -0.4170    -4.8280 ca         1 B9P      -0.044000
     27 C33          1.3730    -0.2770    -4.8060 ca         1 B9P       0.004000
     28 C13          2.0100    -0.1470    -3.6730 ca         1 B9P      -0.040000
     29 C35         -0.8350    -0.4100    -3.5560 ca         1 B9P      -0.069000
     30 C36         -0.1920    -0.2790    -2.4120 ca         1 B9P      -0.160000
     31 C12          1.2740    -0.1440    -2.3960 ca         1 B9P       0.076000
     32 H1           2.5850     0.8840     1.3620 hc         1 B9P       0.039700
     33 H2           2.5840    -0.8850     1.3630 hc         1 B9P       0.039700
     34 H3           0.3450    -0.8830     2.4120 hc         1 B9P       0.028700
     35 H4           0.3450     0.8860     2.4110 hc         1 B9P       0.028700
     36 H5           2.3560    -0.8830     3.8510 hc         1 B9P       0.023200
     37 H6           2.3560     0.8860     3.8500 hc         1 B9P       0.023200
     38 H7           0.1160    -0.8820     4.9000 hc         1 B9P       0.033700
     39 H8           0.1170     0.8870     4.8990 hc         1 B9P       0.033700
     40 H9           2.2430     0.7950     6.3050 h1         1 B9P       0.059700
     41 H10          2.1590    -2.4750     8.8120 h1         1 B9P       0.065200
     42 H11          3.1040    -0.8200     8.6790 h1         1 B9P       0.065200
     43 H12          1.0810    -0.0830     9.5560 h1         1 B9P       0.039700
     44 H13         -0.1590    -2.3780     9.5720 hn         1 B9P       0.215500
     45 H14          0.4210     1.1680     7.7580 h1         1 B9P       0.039700
     46 H15         -1.3450    -0.1310     6.3440 hn         1 B9P       0.222500
     47 H16          3.9030     0.2380    -0.2980 ha         1 B9P       0.103000
     48 H17          5.2130     0.2430    -2.2880 ha         1 B9P       0.108000
     49 H18          5.2220     0.0910    -4.7830 ha         1 B9P       0.108000
     50 H19          3.9720    -0.1630    -7.0050 ha         1 B9P       0.107000
     51 H20          1.8410    -0.4430    -8.2830 ha         1 B9P       0.107000
     52 H21         -0.5280    -0.6640    -8.1760 ha         1 B9P       0.100000
     53 H22         -1.7820    -0.6510    -5.9990 ha         1 B9P       0.104000
     54 H23         -1.9140    -0.5150    -3.5590 ha         1 B9P       0.107000
     55 H24         -0.7450    -0.2710    -1.4800 ha         1 B9P       0.186000
@<TRIPOS>BOND
     1     1     2 2   
     2     2     3 1   
     3     2    16 1   
     4     3     4 1   
     5     3    32 1   
     6     3    33 1   
     7     4     5 1   
     8     4    34 1   
     9     4    35 1   
    10     5     6 1   
    11     5    36 1   
    12     5    37 1   
    13     6     7 1   
    14     6    38 1   
    15     6    39 1   
    16     7     8 1   
    17     7    12 1   
    18     7    40 1   
    19     8     9 1   
    20     9    10 1   
    21     9    41 1   
    22     9    42 1   
    23    10    11 1   
    24    10    12 1   
    25    10    43 1   
    26    11    14 1   
    27    11    44 1   
    28    12    13 1   
    29    12    45 1   
    30    13    14 1   
    31    13    46 1   
    32    14    15 2   
    33    16    17 ar  
    34    16    31 ar  
    35    17    18 ar  
    36    17    47 1   
    37    18    19 ar  
    38    18    48 1   
    39    19    20 ar  
    40    19    28 ar  
    41    20    21 ar  
    42    20    49 1   
    43    21    22 ar  
    44    21    50 1   
    45    22    23 ar  
    46    22    27 ar  
    47    23    24 ar  
    48    23    51 1   
    49    24    25 ar  
    50    24    52 1   
    51    25    26 ar  
    52    25    53 1   
    53    26    27 ar  
    54    26    29 ar  
    55    27    28 ar  
    56    28    31 ar  
    57    29    30 ar  
    58    29    54 1   
    59    30    31 ar  
    60    30    55 1   
@<TRIPOS>SUBSTRUCTURE
     1 B9P         1 TEMP              0 ****  ****    0 ROOT
