@<TRIPOS>MOLECULE
molecule
   55    60     1     0     0
SMALL
bcc


@<TRIPOS>ATOM
      1 O11          0.0000     0.0000     0.0000 o          1 B9P      -0.540100
      2 C11          1.2080     0.0000     0.0000 c          1 B9P       0.588700
      3 C10          1.9620     0.0000     1.3050 c3         1 B9P      -0.178400
      4 C9           0.9680     0.0010     2.4690 c3         1 B9P      -0.073400
      5 C8           1.7330     0.0010     3.7930 c3         1 B9P      -0.085400
      6 C7           0.7390     0.0020     4.9570 c3         1 B9P      -0.064400
      7 C2           1.5040     0.0030     6.2810 c3         1 B9P       0.029400
      8 S1           2.2980    -1.6310     6.5770 ss         1 B9P      -0.360200
      9 C6           2.2860    -1.4780     8.4090 c3         1 B9P       0.015700
     10 C5           0.9780    -0.7090     8.6780 c3         1 B9P       0.083700
     11 N1          -0.1200    -1.6710     8.8640 ns         1 B9P      -0.598900
     12 C4           0.5350     0.1290     7.4720 c3         1 B9P       0.091700
     13 N2          -0.7680    -0.4430     7.0990 ns         1 B9P      -0.595900
     14 C3          -1.0590    -1.4500     7.9340 c          1 B9P       0.819500
     15 O3          -2.0810    -2.1040     7.8540 o          1 B9P      -0.679500
     16 C1           1.9440    -0.0070    -1.2760 ca         1 B9P      -0.180600
     17 C16          3.4050     0.1330    -1.2550 ca         1 B9P      -0.105000
     18 C15          4.1360     0.1370    -2.3490 ca         1 B9P      -0.122000
     19 C14          3.4780    -0.0070    -3.6590 ca         1 B9P      -0.021000
     20 C30          4.1430    -0.0120    -4.7890 ca         1 B9P      -0.120000
     21 C31          3.4220    -0.1580    -6.0710 ca         1 B9P      -0.100000
     22 C32          2.1160    -0.2830    -6.0790 ca         1 B9P      -0.039000
     23 C19          1.3390    -0.4330    -7.3220 ca         1 B9P      -0.112000
     24 C18          0.0310    -0.5540    -7.2550 ca         1 B9P      -0.125000
     25 C17         -0.7040    -0.5460    -5.9840 ca         1 B9P      -0.098000
     26 C34         -0.0940    -0.4170    -4.8280 ca         1 B9P      -0.043000
     27 C33          1.3730    -0.2770    -4.8060 ca         1 B9P      -0.002000
     28 C13          2.0100    -0.1470    -3.6730 ca         1 B9P      -0.039000
     29 C35         -0.8350    -0.4100    -3.5560 ca         1 B9P      -0.107000
     30 C36         -0.1920    -0.2790    -2.4120 ca         1 B9P      -0.149000
     31 C12          1.2740    -0.1440    -2.3960 ca         1 B9P       0.057000
     32 H1           2.5850     0.8840     1.3620 hc         1 B9P       0.068200
     33 H2           2.5840    -0.8850     1.3630 hc         1 B9P       0.068200
     34 H3           0.3450    -0.8830     2.4120 hc         1 B9P       0.056200
     35 H4           0.3450     0.8860     2.4110 hc         1 B9P       0.056200
     36 H5           2.3560    -0.8830     3.8510 hc         1 B9P       0.048200
     37 H6           2.3560     0.8860     3.8500 hc         1 B9P       0.048200
     38 H7           0.1160    -0.8820     4.9000 hc         1 B9P       0.060200
     39 H8           0.1170     0.8870     4.8990 hc         1 B9P       0.060200
     40 H9           2.2430     0.7950     6.3050 h1         1 B9P       0.076700
     41 H10          2.1590    -2.4750     8.8120 h1         1 B9P       0.090700
     42 H11          3.1040    -0.8200     8.6790 h1         1 B9P       0.090700
     43 H12          1.0810    -0.0830     9.5560 h1         1 B9P       0.067700
     44 H13         -0.1590    -2.3780     9.5720 hn         1 B9P       0.362500
     45 H14          0.4210     1.1680     7.7580 h1         1 B9P       0.067700
     46 H15         -1.3450    -0.1310     6.3440 hn         1 B9P       0.364500
     47 H16          3.9030     0.2380    -0.2980 ha         1 B9P       0.128000
     48 H17          5.2130     0.2430    -2.2880 ha         1 B9P       0.136000
     49 H18          5.2220     0.0910    -4.7830 ha         1 B9P       0.136000
     50 H19          3.9720    -0.1630    -7.0050 ha         1 B9P       0.136000
     51 H20          1.8410    -0.4430    -8.2830 ha         1 B9P       0.135000
     52 H21         -0.5280    -0.6640    -8.1760 ha         1 B9P       0.129000
     53 H22         -1.7820    -0.6510    -5.9990 ha         1 B9P       0.132000
     54 H23         -1.9140    -0.5150    -3.5590 ha         1 B9P       0.138000
     55 H24         -0.7450    -0.2710    -1.4800 ha         1 B9P       0.201000
@<TRIPOS>BOND
     1    18    17 ar
     2    18    19 ar
     3    20    19 ar
     4    20    21 ar
     5    17    16 ar
     6    19    28 ar
     7    21    22 ar
     8     3     4 1
     9     3     2 1
    10    16     2 1
    11    16    31 ar
    12    28    31 ar
    13    28    27 ar
    14    22    27 ar
    15    22    23 ar
    16     4     5 1
    17     2     1 2
    18    31    30 ar
    19    27    26 ar
    20    23    24 ar
    21    30    29 ar
    22    26    29 ar
    23    26    25 ar
    24    24    25 ar
    25     5     6 1
    26     6     7 1
    27     8     7 1
    28     8     9 1
    29    13    14 1
    30    13    12 1
    31     7    12 1
    32    15    14 2
    33    14    11 1
    34    12    10 1
    35     9    10 1
    36    11    10 1
    37     3    32 1
    38     3    33 1
    39     4    34 1
    40     4    35 1
    41     5    36 1
    42     5    37 1
    43     6    38 1
    44     6    39 1
    45     7    40 1
    46     9    41 1
    47     9    42 1
    48    10    43 1
    49    11    44 1
    50    12    45 1
    51    13    46 1
    52    17    47 1
    53    18    48 1
    54    20    49 1
    55    21    50 1
    56    23    51 1
    57    24    52 1
    58    25    53 1
    59    29    54 1
    60    30    55 1
@<TRIPOS>SUBSTRUCTURE
     1 B9P         1 TEMP              0 ****  ****    0 ROOT
