@<TRIPOS>MOLECULE
molecule
   59    63     1     0     0
SMALL
bcc


@<TRIPOS>ATOM
      1 C1           0.0000     0.0000     0.0000 c3         1 B9Q      -0.117100
      2 C2           1.5300     0.0000     0.0000 c3         1 B9Q       0.098700
      3 C7           4.2490    -1.1920     1.5470 ca         1 B9Q      -0.056000
      4 C8           5.6320    -1.1480     1.5420 ca         1 B9Q      -0.270300
      5 C9           6.2680     0.0830     1.4390 ca         1 B9Q       0.665600
      6 C11          4.2440     1.1880     1.3370 ca         1 B9Q       0.496200
      7 C13          8.2170     1.4360     1.3250 c3         1 B9Q       0.136700
      8 C15          0.4740     1.0170     2.9140 ca         1 B9Q       0.101100
      9 C16         -0.1940    -0.2060     2.9530 ca         1 B9Q      -0.172000
     10 C19         -1.0840     1.9120     4.5060 ca         1 B9Q      -0.213900
     11 C20          0.0380     2.0740     3.6860 ca         1 B9Q      -0.091000
     12 C21         -1.8020     2.7880     5.4260 cc         1 B9Q       0.383800
     13 N23         -2.8020     0.8120     5.4130 na         1 B9Q       0.139800
     14 C24         -3.7270    -0.1880     5.7410 ca         1 B9Q       0.034800
     15 C27         -5.5520    -2.1650     6.3890 ca         1 B9Q       0.121900
     16 C32          2.1470    -1.1950    -2.0320 c          1 B9Q       0.697100
     17 C34          2.6490    -2.4250    -2.7430 cx         1 B9Q      -0.237700
     18 C35          1.6570    -3.1860    -3.6230 cx         1 B9Q      -0.109400
     19 C4           2.0400     0.0000     1.4430 c3         1 B9Q       0.186400
     20 C6           3.5470     0.0000     1.4420 ca         1 B9Q      -0.263600
     21 N10          5.5640     1.2000     1.3460 nb         1 B9Q      -0.769000
     22 O14          1.5640     1.1670     2.1160 os         1 B9Q      -0.317900
     23 C17         -1.2910    -0.3780     3.7480 ca         1 B9Q      -0.116000
     24 C18         -1.7550     0.6740     4.5340 ca         1 B9Q      -0.044200
     25 N22         -2.7920     2.1100     5.9330 nd         1 B9Q      -0.488100
     26 C25         -4.2360    -0.2680     7.0300 ca         1 B9Q      -0.119000
     27 C26         -5.1470    -1.2550     7.3520 ca         1 B9Q      -0.149500
     28 C28         -5.0490    -2.0840     5.1010 ca         1 B9Q      -0.149500
     29 C29         -4.1380    -1.0980     4.7770 ca         1 B9Q      -0.119000
     30 F30         -6.4440    -3.1300     6.7060 f          1 B9Q      -0.138900
     31 N31          2.0180    -1.1960    -0.6900 ns         1 B9Q      -0.578900
     32 O33          1.8580    -0.2030    -2.6680 o          1 B9Q      -0.605100
     33 C36          2.7730    -2.3610    -4.2660 cx         1 B9Q      -0.109400
     34 H1          -0.3610     0.8240     0.6030 hc         1 B9Q       0.048700
     35 H2          -0.3610    -0.9340     0.4120 hc         1 B9Q       0.048700
     36 H3          -0.3610     0.1100    -1.0150 hc         1 B9Q       0.048700
     37 H4           1.8910     0.8840    -0.5110 h1         1 B9Q       0.098700
     38 H5           3.7250    -2.1370     1.6280 ha         1 B9Q       0.132000
     39 H6           6.2110    -2.0600     1.6200 ha         1 B9Q       0.152000
     40 H7           3.7010     2.1220     1.2570 h4         1 B9Q       0.040100
     41 H8           9.2960     1.3410     1.3330 h1         1 B9Q       0.048033
     42 H9           7.9020     1.9020     0.3990 h1         1 B9Q       0.048033
     43 H10          7.9030     2.0490     2.1620 h1         1 B9Q       0.048033
     44 H11          0.1580    -1.0280     2.3420 ha         1 B9Q       0.144000
     45 H12          0.5590     3.0230     3.6550 ha         1 B9Q       0.150000
     46 H13         -1.5550     3.8190     5.6500 h4         1 B9Q       0.068800
     47 H14          3.3900    -3.0460    -2.2530 hc         1 B9Q       0.086700
     48 H15          0.6640    -2.7590    -3.6860 hc         1 B9Q       0.084450
     49 H16          1.7920    -4.2610    -3.6580 hc         1 B9Q       0.084450
     50 H17          1.6790    -0.8840     1.9530 h1         1 B9Q       0.055700
     51 H18         -1.8000    -1.3340     3.7690 ha         1 B9Q       0.139000
     52 H19         -3.9200     0.4440     7.7830 ha         1 B9Q       0.153500
     53 H20         -5.5440    -1.3190     8.3580 ha         1 B9Q       0.151000
     54 H21         -5.3680    -2.7960     4.3490 ha         1 B9Q       0.151000
     55 H22         -3.7440    -1.0350     3.7690 ha         1 B9Q       0.153500
     56 H23          2.2110    -2.0290    -0.1700 hn         1 B9Q       0.310500
     57 H24          2.4620    -1.4280    -4.7210 hc         1 B9Q       0.084450
     58 H25          3.5890    -2.9310    -4.6930 hc         1 B9Q       0.084450
     59 O12          7.6230     0.1410     1.4330 os         1 B9Q      -0.441100
@<TRIPOS>BOND
     1    30    15 1
     2    15    27 ar
     3    15    28 ar
     4    27    26 ar
     5    28    29 ar
     6    26    14 ar
     7    29    14 ar
     8    14    13 1
     9    25    13 1
    10    25    12 2
    11    13    24 1
    12    24    23 ar
    13    24    10 ar
    14    12    10 1
    15    23     9 ar
    16    10    11 ar
    17     9     8 ar
    18    11     8 ar
    19     8    22 1
    20    22    19 1
    21    19    20 1
    22    19     2 1
    23     1     2 1
    24    20     3 ar
    25    20     6 ar
    26     3     4 ar
    27     2    31 1
    28     6    21 ar
    29     4     5 ar
    30    21     5 ar
    31     5    59 1
    32    31    16 1
    33    59     7 1
    34    32    16 2
    35    16    17 1
    36    17    33 1
    37    17    18 1
    38    33    18 1
    39     1    34 1
    40     1    35 1
    41     1    36 1
    42     2    37 1
    43     3    38 1
    44     4    39 1
    45     6    40 1
    46     7    41 1
    47     7    42 1
    48     7    43 1
    49     9    44 1
    50    11    45 1
    51    12    46 1
    52    17    47 1
    53    18    48 1
    54    18    49 1
    55    19    50 1
    56    23    51 1
    57    26    52 1
    58    27    53 1
    59    28    54 1
    60    29    55 1
    61    31    56 1
    62    33    57 1
    63    33    58 1
@<TRIPOS>SUBSTRUCTURE
     1 B9Q         1 TEMP              0 ****  ****    0 ROOT
