@<TRIPOS>MOLECULE
B9S
   86    90     1     0     0
SMALL
bcc


@<TRIPOS>ATOM
      1 C1           0.0000     0.0000     0.0000 ca         1 B9S      -0.134500
      2 C2           1.3840     0.0000     0.0000 ca         1 B9S       0.104900
      3 C3           2.0750     0.0000     1.2000 ca         1 B9S      -0.134500
      4 C4           1.3830     0.0000     2.3960 ca         1 B9S      -0.059500
      5 C5           0.0010    -0.0010     2.3950 ca         1 B9S      -0.108300
      6 C6          -0.6910    -0.0000     1.1970 ca         1 B9S      -0.059500
      7 C15         -0.7530    -0.0010     3.6990 c3         1 B9S       0.205100
      8 C21         -1.9670     2.8550     5.7980 ca         1 B9S      -0.034300
      9 C23         -1.1520     3.4460     6.7420 ca         1 B9S      -0.081000
     10 C24         -1.3640     4.7740     7.1090 ca         1 B9S      -0.076500
     11 C25         -2.3990     5.4970     6.5200 ca         1 B9S      -0.111000
     12 C26         -3.2080     4.8960     5.5770 ca         1 B9S      -0.045000
     13 C27         -2.9920     3.5780     5.2160 ca         1 B9S      -0.187300
     14 C34         -3.8780     2.9270     4.1860 c3         1 B9S       0.646200
     15 C19         -1.7340     1.4220     5.3950 c3         1 B9S       0.171100
     16 C42         -0.4920     5.4140     8.1250 cc         1 B9S       0.424800
     17 C44         -0.0860     6.7560     8.1370 cc         1 B9S      -0.331600
     18 C45          0.6980     6.9490     9.2260 cd         1 B9S      -0.242600
     19 C53          1.3300     8.2660     9.6000 c3         1 B9S       0.041900
     20 C54          1.3270     9.1830     8.3710 c3         1 B9S       0.242800
     21 C56         -0.4270     7.8390     7.1420 c3         1 B9S       0.344100
     22 C66         -1.9620    10.3730     9.1700 c3         1 B9S       0.008700
     23 C71          0.6530     5.7940    12.3200 c3         1 B9S       0.165100
     24 C74          1.4770     5.6660    13.6030 c3         1 B9S       0.141800
     25 C78          1.3030     5.5680    16.0150 c3         1 B9S       0.142300
     26 C79          0.3300     5.6990    17.1890 c3         1 B9S      -0.016400
     27 C80         -0.1940     7.1370    17.2530 c3         1 B9S      -0.072000
     28 C81         -0.8650     7.4860    15.9230 c3         1 B9S      -0.016400
     29 C82          0.1420     7.3030    14.7850 c3         1 B9S       0.142300
     30 C89          0.9710     8.0950    17.5060 c3         1 B9S       0.002400
     31 C91         -1.2120     7.2590    18.3890 c3         1 B9S       0.002400
     32 F13          2.0600    -0.0010    -1.1690 f          1 B9S      -0.129900
     33 F36         -4.8350     3.8480     3.7450 f          1 B9S      -0.206967
     34 F38         -3.1010     2.5080     3.1000 f          1 B9S      -0.206967
     35 F40         -4.5210     1.8220     4.7540 f          1 B9S      -0.206967
     36 N17         -0.9990     1.3830     4.1240 n7         1 B9S      -0.571200
     37 N46          0.7930     5.7760     9.8790 na         1 B9S       0.517400
     38 N47          0.0370     4.8250     9.1790 nd         1 B9S      -0.626800
     39 N55          0.0080     9.1210     7.7250 n3         1 B9S      -0.552500
     40 N78          0.6130     5.9120    14.7660 n3         1 B9S      -0.522600
     41 O64         -1.7810    10.2400     6.5110 o          1 B9S      -0.581800
     42 O68         -0.0640    11.5540     7.7140 o          1 B9S      -0.581800
     43 O74         -0.4090     4.8380    12.3380 oh         1 B9S      -0.552800
     44 S62         -0.9670    10.4590     7.6550 s6         1 B9S       0.967900
     45 H1          -0.5420     0.0000    -0.9380 ha         1 B9S       0.118000
     46 H2           3.1580     0.0000     1.2010 ha         1 B9S       0.118000
     47 H3           1.9240    -0.0000     3.3340 ha         1 B9S       0.110500
     48 H4          -1.7740    -0.0010     1.1970 ha         1 B9S       0.110500
     49 H5          -0.1680    -0.5120     4.4540 h1         1 B9S       0.011200
     50 H6          -1.7000    -0.5120     3.5690 h1         1 B9S       0.011200
     51 H7          -0.3480     2.8790     7.1970 ha         1 B9S       0.125000
     52 H8          -2.5690     6.5290     6.8020 ha         1 B9S       0.123000
     53 H9          -4.0130     5.4570     5.1190 ha         1 B9S       0.124000
     54 H10         -1.1550     0.9210     6.1620 h1         1 B9S       0.023700
     55 H11         -2.6870     0.9210     5.2770 h1         1 B9S       0.023700
     56 H12          2.3490     8.1000     9.9250 hc         1 B9S       0.019700
     57 H13          0.7590     8.7280    10.3970 hc         1 B9S       0.019700
     58 H14          2.0650     8.8120     7.6700 h1         1 B9S       0.037200
     59 H15          1.4920    10.2000     8.7070 h1         1 B9S       0.037200
     60 H16         -1.4970     7.8580     6.9700 h1         1 B9S       0.030700
     61 H17          0.0990     7.6620     6.2110 h1         1 B9S       0.030700
     62 H18         -2.4970     9.4310     9.1980 h1         1 B9S       0.061033
     63 H19         -2.6710    11.1920     9.1840 h1         1 B9S       0.061033
     64 H20         -1.3110    10.4440    10.0340 h1         1 B9S       0.061033
     65 H21          2.4040     6.2040    11.1430 h1         1 B9S       0.048200
     66 H22          1.8960     4.5100    11.1260 h1         1 B9S       0.048200
     67 H23          0.2380     6.7930    12.2560 h1         1 B9S       0.006700
     68 H24          1.8920     4.6670    13.6670 h1         1 B9S       0.017200
     69 H25          2.2810     6.3910    13.5900 h1         1 B9S       0.017200
     70 H26          2.1380     6.2430    16.1630 h1         1 B9S       0.010950
     71 H27          1.6620     4.5480    15.9590 h1         1 B9S       0.010950
     72 H28         -0.5000     5.0190    17.0470 hc         1 B9S       0.024200
     73 H29          0.8450     5.4620    18.1120 hc         1 B9S       0.024200
     74 H30         -1.1990     8.5160    15.9470 hc         1 B9S       0.024200
     75 H31         -1.7120     6.8300    15.7630 hc         1 B9S       0.024200
     76 H32          0.9840     7.9660    14.9410 h1         1 B9S       0.010950
     77 H33         -0.3360     7.5340    13.8410 h1         1 B9S       0.010950
     78 H34          1.7110     7.9790    16.7230 hc         1 B9S       0.006533
     79 H35          1.4220     7.8710    18.4650 hc         1 B9S       0.006533
     80 H36          0.6060     9.1150    17.5090 hc         1 B9S       0.006533
     81 H37         -0.7360     7.0090    19.3300 hc         1 B9S       0.006533
     82 H38         -1.5850     8.2750    18.4320 hc         1 B9S       0.006533
     83 H39         -2.0370     6.5790    18.2100 hc         1 B9S       0.006533
     84 H40         -0.1250     1.8590     4.2290 hn         1 B9S       0.258800
     85 H43         -1.2260     5.2720    12.1580 ho         1 B9S       0.393000
     86 C69          1.5510     5.5370    11.1090 c3         1 B9S      -0.044700
@<TRIPOS>BOND
     1     1     2 ar  
     2     1     6 ar  
     3     1    45 1   
     4     2     3 ar  
     5     2    32 1   
     6     3     4 ar  
     7     3    46 1   
     8     4     5 ar  
     9     4    47 1   
    10     5     6 ar  
    11     5     7 1   
    12     6    48 1   
    13     7    36 1   
    14     7    49 1   
    15     7    50 1   
    16     8     9 ar  
    17     8    13 ar  
    18     8    15 1   
    19     9    10 ar  
    20     9    51 1   
    21    10    11 ar  
    22    10    16 1   
    23    11    12 ar  
    24    11    52 1   
    25    12    13 ar  
    26    12    53 1   
    27    13    14 1   
    28    14    33 1   
    29    14    34 1   
    30    14    35 1   
    31    15    36 1   
    32    15    54 1   
    33    15    55 1   
    34    16    17 1   
    35    16    38 2   
    36    17    18 2   
    37    17    21 1   
    38    18    19 1   
    39    18    37 1   
    40    19    20 1   
    41    19    56 1   
    42    19    57 1   
    43    20    39 1   
    44    20    58 1   
    45    20    59 1   
    46    21    39 1   
    47    21    60 1   
    48    21    61 1   
    49    22    44 1   
    50    22    62 1   
    51    22    63 1   
    52    22    64 1   
    53    23    24 1   
    54    23    43 1   
    55    23    67 1   
    56    23    86 1   
    57    24    40 1   
    58    24    68 1   
    59    24    69 1   
    60    25    26 1   
    61    25    40 1   
    62    25    70 1   
    63    25    71 1   
    64    26    27 1   
    65    26    72 1   
    66    26    73 1   
    67    27    28 1   
    68    27    30 1   
    69    27    31 1   
    70    28    29 1   
    71    28    74 1   
    72    28    75 1   
    73    29    40 1   
    74    29    76 1   
    75    29    77 1   
    76    30    78 1   
    77    30    79 1   
    78    30    80 1   
    79    31    81 1   
    80    31    82 1   
    81    31    83 1   
    82    36    84 1   
    83    37    38 1   
    84    37    86 1   
    85    39    44 1   
    86    41    44 2   
    87    42    44 2   
    88    43    85 1   
    89    65    86 1   
    90    66    86 1   
@<TRIPOS>SUBSTRUCTURE
     1 B9S         1 TEMP              0 ****  ****    0 ROOT
