@<TRIPOS>MOLECULE
molecule
   86    90     1     0     0
SMALL
bcc


@<TRIPOS>ATOM
      1 C1           0.0000     0.0000     0.0000 ca         1 B9S      -0.169000
      2 C2           1.3840     0.0000     0.0000 ca         1 B9S       0.134900
      3 C3           2.0750     0.0000     1.2000 ca         1 B9S      -0.169000
      4 C4           1.3830     0.0000     2.3960 ca         1 B9S      -0.088000
      5 C5           0.0010    -0.0010     2.3950 ca         1 B9S      -0.101300
      6 C6          -0.6910    -0.0000     1.1970 ca         1 B9S      -0.088000
      7 C15         -0.7530    -0.0010     3.6990 c3         1 B9S       0.207100
      8 C21         -1.9670     2.8550     5.7980 ca         1 B9S      -0.041300
      9 C23         -1.1520     3.4460     6.7420 ca         1 B9S      -0.105000
     10 C24         -1.3640     4.7740     7.1090 ca         1 B9S      -0.084500
     11 C25         -2.3990     5.4970     6.5200 ca         1 B9S      -0.123000
     12 C26         -3.2080     4.8960     5.5770 ca         1 B9S      -0.084000
     13 C27         -2.9920     3.5780     5.2160 ca         1 B9S      -0.154300
     14 C34         -3.8780     2.9270     4.1860 c3         1 B9S       0.672200
     15 C19         -1.7340     1.4220     5.3950 c3         1 B9S       0.184100
     16 C42         -0.4920     5.4140     8.1250 cc         1 B9S       0.391800
     17 C44         -0.0860     6.7560     8.1370 cc         1 B9S      -0.316600
     18 C45          0.6980     6.9490     9.2260 cd         1 B9S      -0.066600
     19 C53          1.3300     8.2660     9.6000 c3         1 B9S      -0.040100
     20 C54          1.3270     9.1830     8.3710 c3         1 B9S       0.245800
     21 C56         -0.4270     7.8390     7.1420 c3         1 B9S       0.324100
     22 C66         -1.9620    10.3730     9.1700 c3         1 B9S      -0.249300
     23 C71          0.6530     5.7940    12.3200 c3         1 B9S       0.130100
     24 C74          1.4770     5.6660    13.6030 c3         1 B9S       0.155800
     25 C78          1.3030     5.5680    16.0150 c3         1 B9S       0.160300
     26 C79          0.3300     5.6990    17.1890 c3         1 B9S      -0.066900
     27 C80         -0.1940     7.1370    17.2530 c3         1 B9S      -0.070000
     28 C81         -0.8650     7.4860    15.9230 c3         1 B9S      -0.066900
     29 C82          0.1420     7.3030    14.7850 c3         1 B9S       0.160300
     30 C89          0.9710     8.0950    17.5060 c3         1 B9S      -0.084600
     31 C91         -1.2120     7.2590    18.3890 c3         1 B9S      -0.084600
     32 F13          2.0600    -0.0010    -1.1690 f          1 B9S      -0.141900
     33 F36         -4.8350     3.8480     3.7450 f          1 B9S      -0.219300
     34 F38         -3.1010     2.5080     3.1000 f          1 B9S      -0.219300
     35 F40         -4.5210     1.8220     4.7540 f          1 B9S      -0.219300
     36 N17         -0.9990     1.3830     4.1240 n7         1 B9S      -0.803200
     37 N46          0.7930     5.7760     9.8790 na         1 B9S       0.081400
     38 N47          0.0370     4.8250     9.1790 nd         1 B9S      -0.480800
     39 N55          0.0080     9.1210     7.7250 n3         1 B9S      -0.821500
     40 N78          0.6130     5.9120    14.7660 n3         1 B9S      -0.715600
     41 O64         -1.7810    10.2400     6.5110 o          1 B9S      -0.625300
     42 O68         -0.0640    11.5540     7.7140 o          1 B9S      -0.625300
     43 O74         -0.4090     4.8380    12.3380 oh         1 B9S      -0.571800
     44 S62         -0.9670    10.4590     7.6550 s6         1 B9S       1.327900
     45 H1          -0.5420     0.0000    -0.9380 ha         1 B9S       0.145000
     46 H2           3.1580     0.0000     1.2010 ha         1 B9S       0.145000
     47 H3           1.9240    -0.0000     3.3340 ha         1 B9S       0.138500
     48 H4          -1.7740    -0.0010     1.1970 ha         1 B9S       0.138500
     49 H5          -0.1680    -0.5120     4.4540 h1         1 B9S       0.039700
     50 H6          -1.7000    -0.5120     3.5690 h1         1 B9S       0.039700
     51 H7          -0.3480     2.8790     7.1970 ha         1 B9S       0.152000
     52 H8          -2.5690     6.5290     6.8020 ha         1 B9S       0.144000
     53 H9          -4.0130     5.4570     5.1190 ha         1 B9S       0.155000
     54 H10         -1.1550     0.9210     6.1620 h1         1 B9S       0.051200
     55 H11         -2.6870     0.9210     5.2770 h1         1 B9S       0.051200
     56 H12          2.3490     8.1000     9.9250 hc         1 B9S       0.056200
     57 H13          0.7590     8.7280    10.3970 hc         1 B9S       0.056200
     58 H14          2.0650     8.8120     7.6700 h1         1 B9S       0.073200
     59 H15          1.4920    10.2000     8.7070 h1         1 B9S       0.073200
     60 H16         -1.4970     7.8580     6.9700 h1         1 B9S       0.066700
     61 H17          0.0990     7.6620     6.2110 h1         1 B9S       0.066700
     62 H18         -2.4970     9.4310     9.1980 h1         1 B9S       0.096033
     63 H19         -2.6710    11.1920     9.1840 h1         1 B9S       0.096033
     64 H20         -1.3110    10.4440    10.0340 h1         1 B9S       0.096033
     65 H21          2.4040     6.2040    11.1430 h1         1 B9S       0.076200
     66 H22          1.8960     4.5100    11.1260 h1         1 B9S       0.076200
     67 H23          0.2380     6.7930    12.2560 h1         1 B9S       0.035700
     68 H24          1.8920     4.6670    13.6670 h1         1 B9S       0.042200
     69 H25          2.2810     6.3910    13.5900 h1         1 B9S       0.042200
     70 H26          2.1380     6.2430    16.1630 h1         1 B9S       0.032200
     71 H27          1.6620     4.5480    15.9590 h1         1 B9S       0.032200
     72 H28         -0.5000     5.0190    17.0470 hc         1 B9S       0.051700
     73 H29          0.8450     5.4620    18.1120 hc         1 B9S       0.051700
     74 H30         -1.1990     8.5160    15.9470 hc         1 B9S       0.051700
     75 H31         -1.7120     6.8300    15.7630 hc         1 B9S       0.051700
     76 H32          0.9840     7.9660    14.9410 h1         1 B9S       0.032200
     77 H33         -0.3360     7.5340    13.8410 h1         1 B9S       0.032200
     78 H34          1.7110     7.9790    16.7230 hc         1 B9S       0.035533
     79 H35          1.4220     7.8710    18.4650 hc         1 B9S       0.035533
     80 H36          0.6060     9.1150    17.5090 hc         1 B9S       0.035533
     81 H37         -0.7360     7.0090    19.3300 hc         1 B9S       0.035533
     82 H38         -1.5850     8.2750    18.4320 hc         1 B9S       0.035533
     83 H39         -2.0370     6.5790    18.2100 hc         1 B9S       0.035533
     84 H40         -0.1250     1.8590     4.2290 hn         1 B9S       0.358800
     85 H43         -1.2260     5.2720    12.1580 ho         1 B9S       0.408000
     86 C69          1.5510     5.5370    11.1090 c3         1 B9S       0.052300
@<TRIPOS>BOND
     1    32     2 1
     2     2     3 ar
     3     2     1 ar
     4     3     4 ar
     5     1     6 ar
     6     4     5 ar
     7     6     5 ar
     8     5     7 1
     9    34    14 1
    10    36     7 1
    11    36    15 1
    12    14    33 1
    13    14    35 1
    14    14    13 1
    15    15     8 1
    16    13     8 ar
    17    13    12 ar
    18     8     9 ar
    19    26    25 1
    20    26    27 1
    21    31    27 1
    22    12    11 ar
    23    25    40 1
    24     9    10 ar
    25    27    30 1
    26    27    28 1
    27    11    10 ar
    28    10    16 1
    29    40    24 1
    30    40    29 1
    31    28    29 1
    32    24    23 1
    33    16    38 2
    34    16    17 1
    35    38    37 1
    36    17    21 1
    37    17    18 2
    38    21    39 1
    39    43    23 1
    40    37    18 1
    41    37    86 1
    42    23    86 1
    43    18    19 1
    44    39    20 1
    45    39    44 1
    46    19    20 1
    47    22    44 1
    48    41    44 2
    49    44    42 2
    50     1    45 1
    51     3    46 1
    52     4    47 1
    53     6    48 1
    54     7    49 1
    55     7    50 1
    56     9    51 1
    57    11    52 1
    58    12    53 1
    59    15    54 1
    60    15    55 1
    61    19    56 1
    62    19    57 1
    63    20    58 1
    64    20    59 1
    65    21    60 1
    66    21    61 1
    67    22    62 1
    68    22    63 1
    69    22    64 1
    70    86    65 1
    71    86    66 1
    72    23    67 1
    73    24    68 1
    74    24    69 1
    75    25    70 1
    76    25    71 1
    77    26    72 1
    78    26    73 1
    79    28    74 1
    80    28    75 1
    81    29    76 1
    82    29    77 1
    83    30    78 1
    84    30    79 1
    85    30    80 1
    86    31    81 1
    87    31    82 1
    88    31    83 1
    89    36    84 1
    90    43    85 1
@<TRIPOS>SUBSTRUCTURE
     1 B9S         1 TEMP              0 ****  ****    0 ROOT
