@<TRIPOS>MOLECULE
B9T
   48    50     1     0     0
SMALL
bcc


@<TRIPOS>ATOM
      1 C1           0.0000     0.0000     0.0000 c3         1 B9T      -0.259100
      2 C2           1.5300     0.0000     0.0000 c3         1 B9T      -0.035300
      3 C7           4.2580     1.1850     1.3380 ca         1 B9T       0.464200
      4 C9           6.2210    -0.0010     1.4480 ca         1 B9T       0.654300
      5 C11          4.2570    -1.1870     1.5450 ca         1 B9T       0.464200
      6 C12          7.7280    -0.0010     1.4470 cx         1 B9T      -0.221000
      7 C13          8.4340    -1.3570     1.3670 cx         1 B9T      -0.068400
      8 C14          8.4350    -0.5700     2.6790 cx         1 B9T      -0.068400
      9 C16          0.4790     1.0160     2.9170 ca         1 B9T       0.167100
     10 C19         -1.7380     0.7090     4.5520 ca         1 B9T       0.057000
     11 C20         -1.0620     1.9310     4.5120 ca         1 B9T      -0.030000
     12 C21          0.0400     2.0800     3.6970 ca         1 B9T      -0.045900
     13 N25          2.0180    -1.1960    -0.6910 ns         1 B9T      -0.216900
     14 C4           2.0400     0.0000     1.4420 c3         1 B9T       0.187400
     15 C6           3.5480    -0.0010     1.4420 ca         1 B9T      -0.360900
     16 N8           5.5800     1.1460     1.3420 nb         1 B9T      -0.627000
     17 N10          5.5800    -1.1470     1.5530 nb         1 B9T      -0.627000
     18 O15          1.5650     1.1670     2.1160 os         1 B9T      -0.270900
     19 C17         -0.1870    -0.2020     2.9590 ca         1 B9T      -0.235000
     20 C18         -1.2900    -0.3600     3.7700 ca         1 B9T      -0.024000
     21 Br2          0.9560     3.7340     3.6400 br         1 B9T      -0.071100
     22 C23         -2.8840     0.5500     5.3970 cg         1 B9T       0.223800
     23 N24         -3.8030     0.4230     6.0500 n1         1 B9T      -0.363800
     24 C26          2.1460    -1.1950    -2.0330 c          1 B9T       0.526100
     25 O27          1.8580    -0.2030    -2.6680 o          1 B9T      -0.579100
     26 C28          2.6480    -2.4260    -2.7430 c3         1 B9T       0.291600
     27 C29          3.2820    -2.0220    -4.0750 c3         1 B9T      -0.048100
     28 F30          3.6020    -3.0670    -1.9460 f          1 B9T      -0.215800
     29 F31          1.5790    -3.2960    -2.9800 f          1 B9T      -0.215800
     30 H1          -0.4650    -0.5980     0.7740 hc         1 B9T       0.107033
     31 H2           0.2390    -0.9590    -0.4440 hc         1 B9T       0.107033
     32 H3           0.4180     0.6640     0.7470 hc         1 B9T       0.107033
     33 H4           1.8910     0.8840    -0.5110 h1         1 B9T       0.097700
     34 H5           3.8000     2.1410     1.1130 h4         1 B9T      -0.001400
     35 H6           3.9510    -2.2040     1.7600 h4         1 B9T      -0.001400
     36 H7           8.2090     0.9570     1.6050 hc         1 B9T       0.097700
     37 H8           7.7230    -2.1720     1.3070 hc         1 B9T       0.062950
     38 H9           9.3330    -1.5720     0.8010 hc         1 B9T       0.062950
     39 H10          9.1520     0.1530     3.0510 hc         1 B9T       0.062950
     40 H11          7.6790    -1.2500     3.0520 hc         1 B9T       0.062950
     41 H12         -0.8670     2.8350     5.0770 ha         1 B9T       0.151000
     42 H13          2.1610    -2.1100    -0.3070 hn         1 B9T       0.189500
     43 H14          1.6790    -0.8840     1.9530 h1         1 B9T       0.040700
     44 H15          0.1640    -1.0920     2.4530 ha         1 B9T       0.136000
     45 H16         -1.7990    -1.2630     3.4570 ha         1 B9T       0.124000
     46 H17          3.8900    -2.8480    -4.4260 hc         1 B9T       0.047700
     47 H18          4.1900    -1.5370    -3.7380 hc         1 B9T       0.047700
     48 H19          2.6190    -1.3030    -4.5400 hc         1 B9T       0.047700
@<TRIPOS>BOND
     1     1     2 1   
     2     1    30 1   
     3     1    31 1   
     4     1    32 1   
     5     2    13 1   
     6     2    14 1   
     7     2    33 1   
     8     3    15 ar  
     9     3    16 ar  
    10     3    34 1   
    11     4     6 1   
    12     4    16 ar  
    13     4    17 ar  
    14     5    15 ar  
    15     5    17 ar  
    16     5    35 1   
    17     6     7 1   
    18     6     8 1   
    19     6    36 1   
    20     7     8 1   
    21     7    37 1   
    22     7    38 1   
    23     8    39 1   
    24     8    40 1   
    25     9    12 ar  
    26     9    18 1   
    27     9    19 ar  
    28    10    11 ar  
    29    10    20 ar  
    30    10    22 1   
    31    11    12 ar  
    32    11    41 1   
    33    12    21 1   
    34    13    24 1   
    35    13    42 1   
    36    14    15 1   
    37    14    18 1   
    38    14    43 1   
    39    19    20 ar  
    40    19    44 1   
    41    20    45 1   
    42    22    23 3   
    43    24    25 2   
    44    24    26 1   
    45    26    27 1   
    46    26    28 1   
    47    26    29 1   
    48    27    46 1   
    49    27    47 1   
    50    27    48 1   
@<TRIPOS>SUBSTRUCTURE
     1 B9T         1 TEMP              0 ****  ****    0 ROOT
