@<TRIPOS>MOLECULE
molecule
   64    67     1     0     0
SMALL
bcc


@<TRIPOS>ATOM
      1 C1           0.0000     0.0000     0.0000 c3         1 B9W      -0.090100
      2 C2           1.5300     0.0000     0.0000 c3         1 B9W      -0.092700
      3 C3           2.0390     0.0000     1.4420 c3         1 B9W      -0.090100
      4 N6           1.6490    -2.4420     0.0360 ns         1 B9W      -0.557900
      5 C7           0.4310    -2.9900    -0.1510 c          1 B9W       0.629100
      6 C9           0.0290    -4.2170     0.6270 c3         1 B9W       0.335600
      7 C10         -1.4960    -4.2760     0.7330 c3         1 B9W      -0.122100
      8 C13          3.5640    -1.1910    -0.8280 c3         1 B9W       0.180400
      9 C16          5.1960     0.4890    -1.2370 ca         1 B9W       0.102100
     10 C19          7.7500     1.4300    -0.6910 ca         1 B9W      -0.040200
     11 C20          6.8840     2.1720    -1.5170 ca         1 B9W      -0.216900
     12 C21          7.6190     3.3700    -1.9130 cc         1 B9W       0.381800
     13 N23          8.9220     2.1430    -0.6070 na         1 B9W       0.129700
     14 C24         10.0590     1.7590     0.1230 cd         1 B9W      -0.059100
     15 N26         11.9020     2.3360     1.4800 n          1 B9W      -0.312000
     16 C27         12.6860     3.3640     2.1710 c3         1 B9W       0.085300
     17 C30         11.5430     0.0520     0.8940 cc         1 B9W      -0.245200
     18 C31         10.4360     0.4050     0.1800 cd         1 B9W      -0.063000
     19 C32          5.5990     1.6890    -1.7870 ca         1 B9W      -0.094000
     20 C33          4.0590    -2.3790    -1.6110 ca         1 B9W      -0.129300
     21 C34          4.0980    -2.3280    -2.9930 ca         1 B9W      -0.110000
     22 C35          4.5520    -3.4180    -3.7120 ca         1 B9W      -0.124500
     23 C4           2.0390    -1.2500    -0.7200 c3         1 B9W       0.128700
     24 O8          -0.3420    -2.4940    -0.9440 o          1 B9W      -0.577100
     25 F11          0.4950    -5.3590    -0.0320 f          1 B9W      -0.231300
     26 F12          0.5850    -4.1590     1.9090 f          1 B9W      -0.231300
     27 O15          3.9490     0.0130    -1.4940 os         1 B9W      -0.317900
     28 C17          6.0640    -0.2400    -0.4250 ca         1 B9W      -0.162000
     29 C18          7.3200     0.2200    -0.1540 ca         1 B9W      -0.116000
     30 N22          8.7980     3.3150    -1.3600 nd         1 B9W      -0.499100
     31 C25         10.8000     2.6950     0.7700 cc         1 B9W       0.005600
     32 C28         12.2830     1.0460     1.5550 c          1 B9W       0.675700
     33 O29         13.2750     0.7410     2.1970 o          1 B9W      -0.648500
     34 C36          4.9680    -4.5580    -3.0500 ca         1 B9W      -0.118000
     35 C37          4.9290    -4.6090    -1.6690 ca         1 B9W      -0.124500
     36 C38          4.4800    -3.5170    -0.9500 ca         1 B9W      -0.110000
     37 H1          -0.3610    -0.7390     0.7050 hc         1 B9W       0.038200
     38 H2          -0.3610     0.9800     0.2880 hc         1 B9W       0.038200
     39 H3          -0.3610    -0.2410    -0.9930 hc         1 B9W       0.038200
     40 H4           1.8910     0.8840    -0.5110 hc         1 B9W       0.073700
     41 H5           2.9480     0.5870     1.5050 hc         1 B9W       0.038200
     42 H6           2.2450    -1.0170     1.7530 hc         1 B9W       0.038200
     43 H7           1.2860     0.4300     2.0920 hc         1 B9W       0.038200
     44 H8           2.2800    -2.8410     0.7020 hn         1 B9W       0.325500
     45 H9          -1.8580    -3.3870     1.2350 hc         1 B9W       0.070367
     46 H10         -1.7850    -5.1530     1.3000 hc         1 B9W       0.070367
     47 H11         -1.9260    -4.3300    -0.2600 hc         1 B9W       0.070367
     48 H12          3.9970    -1.2080     0.1650 h1         1 B9W       0.056700
     49 H13          7.2490     4.1640    -2.5490 h4         1 B9W       0.066800
     50 H14         12.2350     4.3340     2.0050 h1         1 B9W       0.059367
     51 H15         13.6990     3.3650     1.7850 h1         1 B9W       0.059367
     52 H16         12.7050     3.1510     3.2330 h1         1 B9W       0.059367
     53 H17         11.8480    -0.9860     0.9520 ha         1 B9W       0.170000
     54 H18          9.8530    -0.3480    -0.3360 ha         1 B9W       0.149000
     55 H19          4.8830     2.3130    -2.3080 ha         1 B9W       0.148000
     56 H20          3.7720    -1.4340    -3.5120 ha         1 B9W       0.133500
     57 H21          4.5830    -3.3780    -4.7940 ha         1 B9W       0.134000
     58 H22          1.6080    -1.2950    -1.7130 h1         1 B9W       0.097700
     59 H23          5.7350    -1.1810     0.0000 ha         1 B9W       0.144000
     60 H24          7.9830    -0.3580     0.4790 ha         1 B9W       0.138000
     61 H25         10.5100     3.7380     0.7210 h4         1 B9W       0.175000
     62 H26          5.3220    -5.4130    -3.6130 ha         1 B9W       0.132000
     63 H27          5.2570    -5.5020    -1.1500 ha         1 B9W       0.134000
     64 H28          4.4490    -3.5570     0.1320 ha         1 B9W       0.133500
@<TRIPOS>BOND
     1    33    32 2
     2    32    17 1
     3    32    15 1
     4    16    15 1
     5    17    18 2
     6    15    31 1
     7    18    14 1
     8    31    14 2
     9    14    13 1
    10    13    30 1
    11    13    10 1
    12    30    12 2
    13    10    29 ar
    14    10    11 ar
    15    12    11 1
    16    29    28 ar
    17    11    19 ar
    18    28     9 ar
    19    19     9 ar
    20     9    27 1
    21     1     2 1
    22    27     8 1
    23     8    23 1
    24     8    20 1
    25     2    23 1
    26     2     3 1
    27    23     4 1
    28    20    36 ar
    29    20    21 ar
    30    36    35 ar
    31    21    22 ar
    32    35    34 ar
    33    22    34 ar
    34     4     5 1
    35     5    24 2
    36     5     6 1
    37     7     6 1
    38     6    25 1
    39     6    26 1
    40     1    37 1
    41     1    38 1
    42     1    39 1
    43     2    40 1
    44     3    41 1
    45     3    42 1
    46     3    43 1
    47     4    44 1
    48     7    45 1
    49     7    46 1
    50     7    47 1
    51     8    48 1
    52    12    49 1
    53    16    50 1
    54    16    51 1
    55    16    52 1
    56    17    53 1
    57    18    54 1
    58    19    55 1
    59    21    56 1
    60    22    57 1
    61    23    58 1
    62    28    59 1
    63    29    60 1
    64    31    61 1
    65    34    62 1
    66    35    63 1
    67    36    64 1
@<TRIPOS>SUBSTRUCTURE
     1 B9W         1 TEMP              0 ****  ****    0 ROOT
