@<TRIPOS>MOLECULE
B9W
   64    67     1     0     0
SMALL
bcc


@<TRIPOS>ATOM
      1 C1           0.0000     0.0000     0.0000 c3         1 B9W      -0.010600
      2 C2           1.5300     0.0000     0.0000 c3         1 B9W      -0.070700
      3 C3           2.0390     0.0000     1.4420 c3         1 B9W      -0.010600
      4 N6           1.6490    -2.4420     0.0360 ns         1 B9W      -0.152900
      5 C7           0.4310    -2.9900    -0.1510 c          1 B9W       0.532100
      6 C9           0.0290    -4.2170     0.6270 c3         1 B9W       0.302600
      7 C10         -1.4960    -4.2760     0.7330 c3         1 B9W      -0.033100
      8 C13          3.5640    -1.1910    -0.8280 c3         1 B9W       0.213400
      9 C16          5.1960     0.4890    -1.2370 ca         1 B9W       0.107100
     10 C19          7.7500     1.4300    -0.6910 ca         1 B9W      -0.213200
     11 C20          6.8840     2.1720    -1.5170 ca         1 B9W      -0.225900
     12 C21          7.6190     3.3700    -1.9130 cc         1 B9W       0.437800
     13 N23          8.9220     2.1430    -0.6070 na         1 B9W       0.587700
     14 C24         10.0590     1.7590     0.1230 cc         1 B9W      -0.216100
     15 N26         11.9020     2.3360     1.4800 n          1 B9W       0.132000
     16 C27         12.6860     3.3640     2.1710 c3         1 B9W       0.048300
     17 C30         11.5430     0.0520     0.8940 cd         1 B9W      -0.217200
     18 C31         10.4360     0.4050     0.1800 cc         1 B9W      -0.042000
     19 C32          5.5990     1.6890    -1.7870 ca         1 B9W      -0.065000
     20 C33          4.0590    -2.3790    -1.6110 ca         1 B9W      -0.148300
     21 C34          4.0980    -2.3280    -2.9930 ca         1 B9W      -0.084000
     22 C35          4.5520    -3.4180    -3.7120 ca         1 B9W      -0.096000
     23 C4           2.0390    -1.2500    -0.7200 c3         1 B9W       0.016700
     24 O8          -0.3420    -2.4940    -0.9440 o          1 B9W      -0.612100
     25 F11          0.4950    -5.3590    -0.0320 f          1 B9W      -0.216300
     26 F12          0.5850    -4.1590     1.9090 f          1 B9W      -0.216300
     27 O15          3.9490     0.0130    -1.4940 os         1 B9W      -0.287900
     28 C17          6.0640    -0.2400    -0.4250 ca         1 B9W      -0.156000
     29 C18          7.3200     0.2200    -0.1540 ca         1 B9W      -0.076000
     30 N22          8.7980     3.3150    -1.3600 nd         1 B9W      -0.639100
     31 C25         10.8000     2.6950     0.7700 cd         1 B9W      -0.128400
     32 C28         12.2830     1.0460     1.5550 c          1 B9W       0.577700
     33 O29         13.2750     0.7410     2.1970 o          1 B9W      -0.694500
     34 C36          4.9680    -4.5580    -3.0500 ca         1 B9W      -0.089000
     35 C37          4.9290    -4.6090    -1.6690 ca         1 B9W      -0.096000
     36 C38          4.4800    -3.5170    -0.9500 ca         1 B9W      -0.084000
     37 H1          -0.3610    -0.7390     0.7050 hc         1 B9W       0.010533
     38 H2          -0.3610     0.9800     0.2880 hc         1 B9W       0.010533
     39 H3          -0.3610    -0.2410    -0.9930 hc         1 B9W       0.010533
     40 H4           1.8910     0.8840    -0.5110 hc         1 B9W       0.049700
     41 H5           2.9480     0.5870     1.5050 hc         1 B9W       0.010533
     42 H6           2.2450    -1.0170     1.7530 hc         1 B9W       0.010533
     43 H7           1.2860     0.4300     2.0920 hc         1 B9W       0.010533
     44 H8           2.2800    -2.8410     0.7020 hn         1 B9W       0.186500
     45 H9          -1.8580    -3.3870     1.2350 hc         1 B9W       0.037033
     46 H10         -1.7850    -5.1530     1.3000 hc         1 B9W       0.037033
     47 H11         -1.9260    -4.3300    -0.2600 hc         1 B9W       0.037033
     48 H12          3.9970    -1.2080     0.1650 h1         1 B9W       0.034700
     49 H13          7.2490     4.1640    -2.5490 h4         1 B9W       0.016800
     50 H14         12.2350     4.3340     2.0050 h1         1 B9W       0.027700
     51 H15         13.6990     3.3650     1.7850 h1         1 B9W       0.027700
     52 H16         12.7050     3.1510     3.2330 h1         1 B9W       0.027700
     53 H17         11.8480    -0.9860     0.9520 ha         1 B9W       0.139000
     54 H18          9.8530    -0.3480    -0.3360 ha         1 B9W       0.122000
     55 H19          4.8830     2.3130    -2.3080 ha         1 B9W       0.118000
     56 H20          3.7720    -1.4340    -3.5120 ha         1 B9W       0.109500
     57 H21          4.5830    -3.3780    -4.7940 ha         1 B9W       0.106500
     58 H22          1.6080    -1.2950    -1.7130 h1         1 B9W       0.073700
     59 H23          5.7350    -1.1810     0.0000 ha         1 B9W       0.126000
     60 H24          7.9830    -0.3580     0.4790 ha         1 B9W       0.113000
     61 H25         10.5100     3.7380     0.7210 h4         1 B9W       0.148000
     62 H26          5.3220    -5.4130    -3.6130 ha         1 B9W       0.105000
     63 H27          5.2570    -5.5020    -1.1500 ha         1 B9W       0.106500
     64 H28          4.4490    -3.5570     0.1320 ha         1 B9W       0.109500
@<TRIPOS>BOND
     1     1     2 1   
     2     1    37 1   
     3     1    38 1   
     4     1    39 1   
     5     2     3 1   
     6     2    23 1   
     7     2    40 1   
     8     3    41 1   
     9     3    42 1   
    10     3    43 1   
    11     4     5 1   
    12     4    23 1   
    13     4    44 1   
    14     5     6 1   
    15     5    24 2   
    16     6     7 1   
    17     6    25 1   
    18     6    26 1   
    19     7    45 1   
    20     7    46 1   
    21     7    47 1   
    22     8    20 1   
    23     8    23 1   
    24     8    27 1   
    25     8    48 1   
    26     9    19 ar  
    27     9    27 1   
    28     9    28 ar  
    29    10    11 ar  
    30    10    13 1   
    31    10    29 ar  
    32    11    12 1   
    33    11    19 ar  
    34    12    30 2   
    35    12    49 1   
    36    13    14 1   
    37    13    30 1   
    38    14    18 1   
    39    14    31 2   
    40    15    16 1   
    41    15    31 1   
    42    15    32 1   
    43    16    50 1   
    44    16    51 1   
    45    16    52 1   
    46    17    18 2   
    47    17    32 1   
    48    17    53 1   
    49    18    54 1   
    50    19    55 1   
    51    20    21 ar  
    52    20    36 ar  
    53    21    22 ar  
    54    21    56 1   
    55    22    34 ar  
    56    22    57 1   
    57    23    58 1   
    58    28    29 ar  
    59    28    59 1   
    60    29    60 1   
    61    31    61 1   
    62    32    33 2   
    63    34    35 ar  
    64    34    62 1   
    65    35    36 ar  
    66    35    63 1   
    67    36    64 1   
@<TRIPOS>SUBSTRUCTURE
     1 B9W         1 TEMP              0 ****  ****    0 ROOT
