@<TRIPOS>MOLECULE
molecule
   84    88     1     0     0
SMALL
bcc


@<TRIPOS>ATOM
      1 C17          0.0000     0.0000     0.0000 c3         1 B9Y      -0.016300
      2 C15          1.5310     0.0000     0.0000 c3         1 B9Y       0.178800
      3 C1           3.9170     0.1010     2.9110 c3         1 B9Y      -0.104400
      4 C6           3.4680     0.0000     1.4510 c3         1 B9Y       0.161300
      5 C4           1.6650     1.5710     1.8370 c3         1 B9Y       0.161300
      6 C3           2.0600     1.7200     3.3080 c3         1 B9Y      -0.104400
      7 C2           3.5670     1.4890     3.4520 c3         1 B9Y       0.166600
      8 C21         -2.3540    -0.2480    -1.4920 ca         1 B9Y       0.078900
      9 C23         -2.9090    -0.0400    -0.2370 ca         1 B9Y      -0.135000
     10 C24         -4.2930    -0.0110    -0.0880 ca         1 B9Y      -0.065500
     11 C25         -5.1140    -0.1890    -1.2000 ca         1 B9Y      -0.133000
     12 C26         -4.5550    -0.3950    -2.4470 ca         1 B9Y      -0.066000
     13 C27         -3.1810    -0.4250    -2.5960 ca         1 B9Y      -0.172300
     14 C34         -2.5780    -0.6490    -3.9590 c3         1 B9Y       0.673200
     15 C42         -4.8930     0.2100     1.2500 cc         1 B9Y       0.398800
     16 C44         -6.0750     0.9130     1.5210 cc         1 B9Y      -0.306600
     17 C45         -6.2850     0.8860     2.8600 cd         1 B9Y      -0.064600
     18 C53         -7.4610     1.5280     3.5530 c3         1 B9Y      -0.037100
     19 C54         -8.0940     2.5540     2.6060 c3         1 B9Y       0.110000
     20 C56         -6.9920     1.6010     0.5380 c3         1 B9Y       0.194300
     21 C64         -5.8000    -1.3800     5.2140 c3         1 B9Y       0.127100
     22 C68         -5.7310    -1.5940     6.7270 c3         1 B9Y       0.123800
     23 C72         -7.8620    -2.8090     6.7520 c3         1 B9Y       0.160800
     24 C73         -8.4970    -4.1830     6.9800 c3         1 B9Y      -0.076900
     25 C74         -8.2700    -4.6090     8.4340 c3         1 B9Y      -0.083400
     26 C75         -6.7670    -4.6280     8.7230 c3         1 B9Y      -0.076900
     27 C76         -6.1810    -3.2410     8.4440 c3         1 B9Y       0.160800
     28 C87        -10.6820     2.1230     1.4800 c3         1 B9Y       0.069400
     29 F13          4.2600     2.4640     2.7250 f          1 B9Y      -0.250300
     30 F36         -3.6000    -0.7980    -4.9020 f          1 B9Y      -0.218633
     31 F38         -1.7830     0.4490    -4.3030 f          1 B9Y      -0.218633
     32 F40         -1.7920    -1.8060    -3.9360 f          1 B9Y      -0.218633
     33 N46         -5.2740     0.1990     3.4230 na         1 B9Y       0.086400
     34 N47         -4.4120    -0.2230     2.4000 nd         1 B9Y      -0.485800
     35 N5           2.0200     0.2270     1.3670 n3         1 B9Y      -0.733600
     36 N55         -8.2230     1.9600     1.2670 n          1 B9Y      -0.502800
     37 N70         -6.4250    -2.8790     7.0410 n3         1 B9Y      -0.706600
     38 O66         -5.1460    -2.4630     4.5490 oh         1 B9Y      -0.563800
     39 O85         -9.5250     1.2570    -0.3860 o          1 B9Y      -0.567100
     40 O89        -11.8330     1.8030     0.6960 oh         1 B9Y      -0.571800
     41 S19         -0.6040    -0.2800    -1.6880 ss         1 B9Y      -0.219000
     42 H1          -0.3610     0.9560     0.3590 h1         1 B9Y       0.074200
     43 H2          -0.3610    -0.7890     0.6480 h1         1 B9Y       0.074200
     44 H3           1.8920    -0.9560    -0.3590 h1         1 B9Y       0.049200
     45 H4           1.8920     0.7890    -0.6480 h1         1 B9Y       0.049200
     46 H5           3.4080    -0.6540     3.4970 hc         1 B9Y       0.059950
     47 H6           4.9890    -0.0500     2.9690 hc         1 B9Y       0.059950
     48 H7           3.7000    -0.9870     1.0700 h1         1 B9Y       0.043950
     49 H8           3.9840     0.7500     0.8630 h1         1 B9Y       0.043950
     50 H9           0.5960     1.7170     1.7360 h1         1 B9Y       0.043950
     51 H10          2.1920     2.3100     1.2470 h1         1 B9Y       0.043950
     52 H11          1.8140     2.7190     3.6480 hc         1 B9Y       0.059950
     53 H12          1.5250     0.9880     3.9010 hc         1 B9Y       0.059950
     54 H13          3.8420     1.5480     4.4990 h1         1 B9Y       0.052700
     55 H14         -2.2670     0.0980     0.6250 ha         1 B9Y       0.153000
     56 H15         -6.1910    -0.1660    -1.0870 ha         1 B9Y       0.154000
     57 H16         -5.1950    -0.5330    -3.3090 ha         1 B9Y       0.157000
     58 H17         -7.1230     2.0270     4.4530 hc         1 B9Y       0.058700
     59 H18         -8.1910     0.7680     3.8050 hc         1 B9Y       0.058700
     60 H19         -7.4290     3.4050     2.5360 h1         1 B9Y       0.058700
     61 H20         -9.0880     2.7830     2.9710 h1         1 B9Y       0.058700
     62 H21         -7.2300     0.9280    -0.2760 h1         1 B9Y       0.072200
     63 H22         -6.5170     2.4970     0.1580 h1         1 B9Y       0.072200
     64 H23         -4.0490    -0.1400     5.0850 h1         1 B9Y       0.067700
     65 H24         -5.5430     0.7440     5.4250 h1         1 B9Y       0.067700
     66 H25         -6.8360    -1.3370     4.9020 h1         1 B9Y       0.087700
     67 H26         -4.6950    -1.6370     7.0400 h1         1 B9Y       0.037200
     68 H27         -6.2270    -0.7740     7.2310 h1         1 B9Y       0.037200
     69 H29         -8.3260    -2.0840     7.4100 h1         1 B9Y       0.031450
     70 H30         -8.0390    -4.9070     6.3170 hc         1 B9Y       0.051950
     71 H31         -9.5610    -4.1260     6.7840 hc         1 B9Y       0.051950
     72 H32         -8.7560    -3.9040     9.0970 hc         1 B9Y       0.040700
     73 H33         -8.6790    -5.6010     8.5870 hc         1 B9Y       0.040700
     74 H34         -6.2860    -5.3580     8.0830 hc         1 B9Y       0.051950
     75 H35         -6.6020    -4.8860     9.7620 hc         1 B9Y       0.051950
     76 H36         -5.1140    -3.2570     8.6320 h1         1 B9Y       0.031450
     77 H37         -6.6560    -2.5140     9.0910 h1         1 B9Y       0.031450
     78 H38        -10.6650     3.1870     1.6790 h1         1 B9Y       0.035700
     79 H39        -10.7210     1.5800     2.4170 h1         1 B9Y       0.035700
     80 H42         -4.2320    -2.4690     4.7800 ho         1 B9Y       0.404000
     81 H43        -12.5930     2.2190     1.0680 ho         1 B9Y       0.404000
     82 C62         -5.1050    -0.0660     4.8530 c3         1 B9Y       0.033300
     83 C83         -9.4360     1.7480     0.7190 c          1 B9Y       0.662100
     84 H28         -8.0080    -2.5130     5.7200 h1         1 B9Y       0.031450
@<TRIPOS>BOND
     1    31    14 1
     2    30    14 1
     3    32    14 1
     4    14    13 1
     5    41     8 1
     6    41     1 1
     7    13    12 ar
     8    13     8 ar
     9    29     7 1
    10    12    11 ar
    11     8     9 ar
    12     2     1 1
    13     2    35 1
    14     4    35 1
    15     4     3 1
    16     5    35 1
    17     5     6 1
    18     3     7 1
    19     7     6 1
    20    11    10 ar
    21     9    10 ar
    22    10    15 1
    23    15    34 2
    24    15    16 1
    25    34    33 1
    26    20    16 1
    27    20    36 1
    28    39    83 2
    29    16    17 2
    30    27    26 1
    31    27    37 1
    32    83    36 1
    33    83    28 1
    34    36    19 1
    35    33    17 1
    36    33    82 1
    37    26    25 1
    38    17    18 1
    39    22    37 1
    40    22    21 1
    41    37    23 1
    42    82    21 1
    43    40    28 1
    44    19    18 1
    45    25    24 1
    46    21    38 1
    47    23    24 1
    48     1    42 1
    49     1    43 1
    50     2    44 1
    51     2    45 1
    52     3    46 1
    53     3    47 1
    54     4    48 1
    55     4    49 1
    56     5    50 1
    57     5    51 1
    58     6    52 1
    59     6    53 1
    60     7    54 1
    61     9    55 1
    62    11    56 1
    63    12    57 1
    64    18    58 1
    65    18    59 1
    66    19    60 1
    67    19    61 1
    68    20    62 1
    69    20    63 1
    70    82    64 1
    71    82    65 1
    72    21    66 1
    73    22    67 1
    74    22    68 1
    75    23    84 1
    76    23    69 1
    77    24    70 1
    78    24    71 1
    79    25    72 1
    80    25    73 1
    81    26    74 1
    82    26    75 1
    83    27    76 1
    84    27    77 1
    85    28    78 1
    86    28    79 1
    87    38    80 1
    88    40    81 1
@<TRIPOS>SUBSTRUCTURE
     1 B9Y         1 TEMP              0 ****  ****    0 ROOT
