@<TRIPOS>MOLECULE
B9Y
   84    88     1     0     0
SMALL
bcc


@<TRIPOS>ATOM
      1 C17          0.0000     0.0000     0.0000 c3         1 B9Y       0.065700
      2 C15          1.5310     0.0000     0.0000 c3         1 B9Y       0.174800
      3 C1           3.9170     0.1010     2.9110 c3         1 B9Y      -0.051400
      4 C6           3.4680     0.0000     1.4510 c3         1 B9Y       0.148300
      5 C4           1.6650     1.5710     1.8370 c3         1 B9Y       0.148300
      6 C3           2.0600     1.7200     3.3080 c3         1 B9Y      -0.051400
      7 C2           3.5670     1.4890     3.4520 c3         1 B9Y       0.181600
      8 C21         -2.3540    -0.2480    -1.4920 ca         1 B9Y       0.114900
      9 C23         -2.9090    -0.0400    -0.2370 ca         1 B9Y      -0.119000
     10 C24         -4.2930    -0.0110    -0.0880 ca         1 B9Y      -0.058500
     11 C25         -5.1140    -0.1890    -1.2000 ca         1 B9Y      -0.115000
     12 C26         -4.5550    -0.3950    -2.4470 ca         1 B9Y      -0.031000
     13 C27         -3.1810    -0.4250    -2.5960 ca         1 B9Y      -0.189300
     14 C34         -2.5780    -0.6490    -3.9590 c3         1 B9Y       0.647200
     15 C42         -4.8930     0.2100     1.2500 cc         1 B9Y       0.432800
     16 C44         -6.0750     0.9130     1.5210 cc         1 B9Y      -0.318600
     17 C45         -6.2850     0.8860     2.8600 cd         1 B9Y      -0.242600
     18 C53         -7.4610     1.5280     3.5530 c3         1 B9Y       0.048900
     19 C54         -8.0940     2.5540     2.6060 c3         1 B9Y       0.052000
     20 C56         -6.9920     1.6010     0.5380 c3         1 B9Y       0.157300
     21 C64         -5.8000    -1.3800     5.2140 c3         1 B9Y       0.160100
     22 C68         -5.7310    -1.5940     6.7270 c3         1 B9Y       0.117800
     23 C72         -7.8620    -2.8090     6.7520 c3         1 B9Y       0.150300
     24 C73         -8.4970    -4.1830     6.9800 c3         1 B9Y      -0.023400
     25 C74         -8.2700    -4.6090     8.4340 c3         1 B9Y      -0.027400
     26 C75         -6.7670    -4.6280     8.7230 c3         1 B9Y      -0.023400
     27 C76         -6.1810    -3.2410     8.4440 c3         1 B9Y       0.150300
     28 C87        -10.6820     2.1230     1.4800 c3         1 B9Y       0.155400
     29 F13          4.2600     2.4640     2.7250 f          1 B9Y      -0.235300
     30 F36         -3.6000    -0.7980    -4.9020 f          1 B9Y      -0.204967
     31 F38         -1.7830     0.4490    -4.3030 f          1 B9Y      -0.204967
     32 F40         -1.7920    -1.8060    -3.9360 f          1 B9Y      -0.204967
     33 N46         -5.2740     0.1990     3.4230 na         1 B9Y       0.529400
     34 N47         -4.4120    -0.2230     2.4000 nd         1 B9Y      -0.632800
     35 N5           2.0200     0.2270     1.3670 n3         1 B9Y      -0.543600
     36 N55         -8.2230     1.9600     1.2670 n          1 B9Y      -0.173800
     37 N70         -6.4250    -2.8790     7.0410 n3         1 B9Y      -0.520600
     38 O66         -5.1460    -2.4630     4.5490 oh         1 B9Y      -0.553800
     39 O85         -9.5250     1.2570    -0.3860 o          1 B9Y      -0.608100
     40 O89        -11.8330     1.8030     0.6960 oh         1 B9Y      -0.549800
     41 S19         -0.6040    -0.2800    -1.6880 ss         1 B9Y      -0.315000
     42 H1          -0.3610     0.9560     0.3590 h1         1 B9Y       0.052200
     43 H2          -0.3610    -0.7890     0.6480 h1         1 B9Y       0.052200
     44 H3           1.8920    -0.9560    -0.3590 h1         1 B9Y       0.025200
     45 H4           1.8920     0.7890    -0.6480 h1         1 B9Y       0.025200
     46 H5           3.4080    -0.6540     3.4970 hc         1 B9Y       0.031950
     47 H6           4.9890    -0.0500     2.9690 hc         1 B9Y       0.031950
     48 H7           3.7000    -0.9870     1.0700 h1         1 B9Y       0.019450
     49 H8           3.9840     0.7500     0.8630 h1         1 B9Y       0.019450
     50 H9           0.5960     1.7170     1.7360 h1         1 B9Y       0.019450
     51 H10          2.1920     2.3100     1.2470 h1         1 B9Y       0.019450
     52 H11          1.8140     2.7190     3.6480 hc         1 B9Y       0.031950
     53 H12          1.5250     0.9880     3.9010 hc         1 B9Y       0.031950
     54 H13          3.8420     1.5480     4.4990 h1         1 B9Y       0.023700
     55 H14         -2.2670     0.0980     0.6250 ha         1 B9Y       0.134000
     56 H15         -6.1910    -0.1660    -1.0870 ha         1 B9Y       0.132000
     57 H16         -5.1950    -0.5330    -3.3090 ha         1 B9Y       0.126000
     58 H17         -7.1230     2.0270     4.4530 hc         1 B9Y       0.024200
     59 H18         -8.1910     0.7680     3.8050 hc         1 B9Y       0.024200
     60 H19         -7.4290     3.4050     2.5360 h1         1 B9Y       0.031200
     61 H20         -9.0880     2.7830     2.9710 h1         1 B9Y       0.031200
     62 H21         -7.2300     0.9280    -0.2760 h1         1 B9Y       0.041700
     63 H22         -6.5170     2.4970     0.1580 h1         1 B9Y       0.041700
     64 H23         -4.0490    -0.1400     5.0850 h1         1 B9Y       0.042200
     65 H24         -5.5430     0.7440     5.4250 h1         1 B9Y       0.042200
     66 H25         -6.8360    -1.3370     4.9020 h1         1 B9Y       0.050700
     67 H26         -4.6950    -1.6370     7.0400 h1         1 B9Y       0.013700
     68 H27         -6.2270    -0.7740     7.2310 h1         1 B9Y       0.013700
     69 H29         -8.3260    -2.0840     7.4100 h1         1 B9Y       0.007200
     70 H30         -8.0390    -4.9070     6.3170 hc         1 B9Y       0.022200
     71 H31         -9.5610    -4.1260     6.7840 hc         1 B9Y       0.022200
     72 H32         -8.7560    -3.9040     9.0970 hc         1 B9Y       0.013200
     73 H33         -8.6790    -5.6010     8.5870 hc         1 B9Y       0.013200
     74 H34         -6.2860    -5.3580     8.0830 hc         1 B9Y       0.022200
     75 H35         -6.6020    -4.8860     9.7620 hc         1 B9Y       0.022200
     76 H36         -5.1140    -3.2570     8.6320 h1         1 B9Y       0.007200
     77 H37         -6.6560    -2.5140     9.0910 h1         1 B9Y       0.007200
     78 H38        -10.6650     3.1870     1.6790 h1         1 B9Y      -0.002800
     79 H39        -10.7210     1.5800     2.4170 h1         1 B9Y      -0.002800
     80 H42         -4.2320    -2.4690     4.7800 ho         1 B9Y       0.395000
     81 H43        -12.5930     2.2190     1.0680 ho         1 B9Y       0.385000
     82 C62         -5.1050    -0.0660     4.8530 c3         1 B9Y      -0.062700
     83 C83         -9.4360     1.7480     0.7190 c          1 B9Y       0.577100
     84 H28         -8.0080    -2.5130     5.7200 h1         1 B9Y       0.007200
@<TRIPOS>BOND
     1     1     2 1   
     2     1    41 1   
     3     1    42 1   
     4     1    43 1   
     5     2    35 1   
     6     2    44 1   
     7     2    45 1   
     8     3     4 1   
     9     3     7 1   
    10     3    46 1   
    11     3    47 1   
    12     4    35 1   
    13     4    48 1   
    14     4    49 1   
    15     5     6 1   
    16     5    35 1   
    17     5    50 1   
    18     5    51 1   
    19     6     7 1   
    20     6    52 1   
    21     6    53 1   
    22     7    29 1   
    23     7    54 1   
    24     8     9 ar  
    25     8    13 ar  
    26     8    41 1   
    27     9    10 ar  
    28     9    55 1   
    29    10    11 ar  
    30    10    15 1   
    31    11    12 ar  
    32    11    56 1   
    33    12    13 ar  
    34    12    57 1   
    35    13    14 1   
    36    14    30 1   
    37    14    31 1   
    38    14    32 1   
    39    15    16 1   
    40    15    34 2   
    41    16    17 2   
    42    16    20 1   
    43    17    18 1   
    44    17    33 1   
    45    18    19 1   
    46    18    58 1   
    47    18    59 1   
    48    19    36 1   
    49    19    60 1   
    50    19    61 1   
    51    20    36 1   
    52    20    62 1   
    53    20    63 1   
    54    21    22 1   
    55    21    38 1   
    56    21    66 1   
    57    21    82 1   
    58    22    37 1   
    59    22    67 1   
    60    22    68 1   
    61    23    24 1   
    62    23    37 1   
    63    23    69 1   
    64    23    84 1   
    65    24    25 1   
    66    24    70 1   
    67    24    71 1   
    68    25    26 1   
    69    25    72 1   
    70    25    73 1   
    71    26    27 1   
    72    26    74 1   
    73    26    75 1   
    74    27    37 1   
    75    27    76 1   
    76    27    77 1   
    77    28    40 1   
    78    28    78 1   
    79    28    79 1   
    80    28    83 1   
    81    33    34 1   
    82    33    82 1   
    83    36    83 1   
    84    38    80 1   
    85    39    83 2   
    86    40    81 1   
    87    64    82 1   
    88    65    82 1   
@<TRIPOS>SUBSTRUCTURE
     1 B9Y         1 TEMP              0 ****  ****    0 ROOT
