@<TRIPOS>MOLECULE
molecule
   50    52     1     0     0
SMALL
bcc


@<TRIPOS>ATOM
      1 C4           0.0000     0.0000     0.0000 ca         1 B9Z       0.121100
      2 C5           1.3890     0.0000     0.0000 ca         1 B9Z      -0.189500
      3 C6           2.0790     0.0000     1.1940 ca         1 B9Z      -0.088000
      4 C8           3.5160    -0.0010     3.6890 ca         1 B9Z      -0.142500
      5 C10          3.5040     0.0040     6.0880 ca         1 B9Z       0.002900
      6 C20          5.7640     3.4500     9.1590 ca         1 B9Z      -0.067000
      7 C21          5.5060     2.1100     8.9540 ca         1 B9Z       0.031700
      8 C22          6.0810     1.0780     9.8900 c3         1 B9Z      -0.152400
      9 C1           1.3810     0.0000     2.4010 cp         1 B9Z      -0.048000
     10 C12          1.4230    -0.0000     4.8930 ca         1 B9Z      -0.142500
     11 C19          5.2370     4.3970     8.3010 ca         1 B9Z      -0.147000
     12 C23          7.5850     1.1650     9.8710 c          1 B9Z       0.904600
     13 C3          -0.6980    -0.0010     1.2010 ca         1 B9Z      -0.189500
     14 C2          -0.0120     0.0000     2.3970 ca         1 B9Z      -0.088000
     15 C11          2.1130     0.0110     6.0870 ca         1 B9Z      -0.079500
     16 C16          4.7150     1.7130     7.8820 ca         1 B9Z       0.005900
     17 C17          4.1860     2.6670     7.0220 ca         1 B9Z      -0.158000
     18 C18          4.4540     4.0070     7.2310 ca         1 B9Z      -0.162000
     19 C26          5.5730     1.3370    11.3090 c3         1 B9Z      -0.028400
     20 C27          6.0540     0.2200    12.2360 c3         1 B9Z      -0.190400
     21 C28          5.5540     0.4760    13.6340 c          1 B9Z       0.894600
     22 C7           2.1220     0.0000     3.6870 cp         1 B9Z      -0.042000
     23 C9           4.2020    -0.0020     4.8840 ca         1 B9Z      -0.079500
     24 O14         -0.6790     0.0050    -1.1780 os         1 B9Z      -0.336900
     25 O24          8.3150     0.3360    10.6350 o          1 B9Z      -0.848800
     26 O25          8.1340     1.9810     9.1690 o          1 B9Z      -0.848800
     27 O29          5.8550    -0.3810    14.6230 o          1 B9Z      -0.889800
     28 O30          4.8810     1.4520    13.8660 o          1 B9Z      -0.889800
     29 H1           1.9300     0.0000    -0.9380 ha         1 B9Z       0.131500
     30 H2           3.1620     0.0000     1.1940 ha         1 B9Z       0.140500
     31 H3           4.0600    -0.0060     2.7520 ha         1 B9Z       0.121000
     32 H4           6.3780     3.7600     9.9970 ha         1 B9Z       0.160000
     33 H5           5.7730     0.0890     9.5710 hc         1 B9Z       0.048700
     34 H6           0.3400     0.0030     4.8930 ha         1 B9Z       0.121000
     35 H7           5.4440     5.4480     8.4640 ha         1 B9Z       0.103000
     36 H8          -1.7810    -0.0010     1.1970 ha         1 B9Z       0.131500
     37 H9          -0.5570     0.0000     3.3330 ha         1 B9Z       0.140500
     38 H10          1.5720     0.0130     7.0250 ha         1 B9Z       0.152500
     39 H11         -2.5180     0.0080    -2.1070 h1         1 B9Z       0.036033
     40 H12         -2.4400     0.8890    -0.5740 h1         1 B9Z       0.036033
     41 H13         -2.4400    -0.8800    -0.5790 h1         1 B9Z       0.036033
     42 H14          3.5700     2.3620     6.1840 ha         1 B9Z       0.107000
     43 H15          4.0430     4.7520     6.5610 ha         1 B9Z       0.095000
     44 H16          5.9550     2.2880    11.6610 hc         1 B9Z       0.027200
     45 H17          4.4900     1.3630    11.3060 hc         1 B9Z       0.027200
     46 H18          7.1370     0.1950    12.2390 hc         1 B9Z       0.063200
     47 H19          5.6720    -0.7310    11.8840 hc         1 B9Z       0.063200
     48 H20          5.2850    -0.0050     4.8870 ha         1 B9Z       0.152500
     49 C15         -2.1050     0.0060    -1.1050 c3         1 B9Z       0.131700
     50 S13          4.3830     0.0030     7.6140 ss         1 B9Z      -0.177800
@<TRIPOS>BOND
     1    28    21 1
     2    26    12 1
     3    25    12 1
     4    21    27 1
     5    21    20 1
     6    19    20 1
     7    19     8 1
     8    12     8 1
     9     8     7 1
    10     7     6 ar
    11     7    16 ar
    12    13    14 ar
    13    13     1 ar
    14     6    11 ar
    15    14     9 ar
    16    24     1 1
    17    24    49 1
    18    10    15 ar
    19    10    22 ar
    20    15     5 ar
    21     1     2 ar
    22     9    22 1
    23     9     3 ar
    24    22     4 ar
    25     5    50 1
    26     5    23 ar
    27     2     3 ar
    28    11    18 ar
    29    16    50 1
    30    16    17 ar
    31     4    23 ar
    32    17    18 ar
    33     2    29 1
    34     3    30 1
    35     4    31 1
    36     6    32 1
    37     8    33 1
    38    10    34 1
    39    11    35 1
    40    13    36 1
    41    14    37 1
    42    15    38 1
    43    49    39 1
    44    49    40 1
    45    49    41 1
    46    17    42 1
    47    18    43 1
    48    19    44 1
    49    19    45 1
    50    20    46 1
    51    20    47 1
    52    23    48 1
@<TRIPOS>SUBSTRUCTURE
     1 B9Z         1 TEMP              0 ****  ****    0 ROOT
