@<TRIPOS>MOLECULE
BA1
   65    68     1     0     0
SMALL
bcc


@<TRIPOS>ATOM
      1 C1'          0.0000     0.0000     0.0000 c          1 BA1       0.601700
      2 C2'          1.4760     0.0000     0.0000 ca         1 BA1      -0.175600
      3 C3'          2.1770     0.0000     1.2090 ca         1 BA1      -0.038000
      4 C4'          3.5530    -0.0010     1.2050 ca         1 BA1      -0.150500
      5 C5'          4.2470     0.0010     0.0010 ca         1 BA1       0.147100
      6 O5'          5.6040    -0.0010     0.0010 oh         1 BA1      -0.498100
      7 C6'          3.5540     0.0000    -1.2040 ca         1 BA1      -0.150500
      8 C7'          2.1770    -0.0060    -1.2080 ca         1 BA1      -0.038000
      9 O1'         -0.6070     0.0000     1.0530 o          1 BA1      -0.666100
     10 N1'         -0.6730     0.0010    -1.1660 ns         1 BA1      -0.171900
     11 N1          -4.0490    -1.6160    -1.5250 n7         1 BA1      -0.567200
     12 C2          -2.6250    -1.4570    -1.1660 c3         1 BA1       0.128800
     13 C3          -2.1380     0.0000    -1.1660 c3         1 BA1      -0.003300
     14 C4          -2.6160     0.8210    -2.3350 c3         1 BA1       0.180100
     15 C5          -3.9520     1.5170    -1.9500 c3         1 BA1      -0.041400
     16 C6          -5.0260     0.5340    -1.9080 c3         1 BA1      -0.033400
     17 C7          -4.8100    -0.5770    -0.8740 c3         1 BA1       0.122800
     18 OAC         -1.6200     1.8260    -2.6630 os         1 BA1      -0.416900
     19 C1B         -1.4920     2.2590    -3.9310 c          1 BA1       0.722700
     20 OBC         -2.2100     1.8080    -4.8020 o          1 BA1      -0.598000
     21 C2B         -0.4780     3.2840    -4.2660 ca         1 BA1      -0.074600
     22 C3B         -0.3470     3.7290    -5.5800 ca         1 BA1      -0.209000
     23 C4B          0.6000     4.6870    -5.8970 ca         1 BA1       0.220600
     24 O4'          0.7260     5.1200    -7.1770 oh         1 BA1      -0.434100
     25 C5B          1.4290     5.2090    -4.8930 ca         1 BA1      -0.155600
     26 C6B          1.2980     4.7540    -3.5730 ca         1 BA1       0.220600
     27 O6'          2.0960     5.2560    -2.5990 oh         1 BA1      -0.434100
     28 C7B          0.3440     3.8000    -3.2630 ca         1 BA1      -0.209000
     29 C8'          2.4390     6.2300    -5.2260 c          1 BA1       0.710300
     30 O8'          2.6260     6.5460    -6.3860 o          1 BA1      -0.556100
     31 C9'          3.2260     6.8670    -4.1520 ca         1 BA1      -0.145600
     32 CXU          4.4870     6.3670    -3.8120 ca         1 BA1       0.129100
     33 OXU          4.9910     5.2910    -4.4650 oh         1 BA1      -0.504100
     34 CX4          5.2210     6.9730    -2.8000 ca         1 BA1      -0.204000
     35 CXE          4.7130     8.0690    -2.1320 ca         1 BA1      -0.106000
     36 CXO          3.4690     8.5780    -2.4600 ca         1 BA1      -0.093000
     37 CXY          2.7170     7.9890    -3.4700 ca         1 BA1      -0.043600
     38 CX8          1.3880     8.5310    -3.8210 c          1 BA1       0.966200
     39 OX8          0.8540     9.5300    -3.0900 o          1 BA1      -0.871800
     40 OXI          0.7780     8.0790    -4.7670 o          1 BA1      -0.871800
     41 H3'          1.6380    -0.0010     2.1490 ha         1 BA1       0.116500
     42 H4'          4.0970    -0.0010     2.1420 ha         1 BA1       0.117000
     43 HO5'         5.9180    -0.8880     0.0520 ho         1 BA1       0.400000
     44 H6'          4.0970    -0.0010    -2.1410 ha         1 BA1       0.117000
     45 H7'          1.6370    -0.0060    -2.1470 ha         1 BA1       0.116500
     46 HN1'        -0.1740    -0.0470    -2.0320 hn         1 BA1       0.186500
     47 HN1         -4.3730    -2.5110    -1.2160 hn         1 BA1       0.249800
     48 H21         -2.0280    -2.0190    -1.8740 h1         1 BA1       0.012200
     49 H22         -2.4740    -1.8690    -0.1750 h1         1 BA1       0.012200
     50 H3          -2.4840     0.4740    -0.2550 h1         1 BA1       0.073700
     51 H4          -2.7790     0.1740    -3.1880 h1         1 BA1       0.052700
     52 H51         -4.1880     2.2740    -2.6880 hc         1 BA1       0.031700
     53 H52         -3.8490     1.9770    -0.9750 hc         1 BA1       0.031700
     54 H61         -5.1140     0.0790    -2.8870 hc         1 BA1       0.024200
     55 H62         -5.9520     1.0450    -1.6740 hc         1 BA1       0.024200
     56 H71         -4.2560    -0.1900    -0.0270 h1         1 BA1       0.016200
     57 H72         -5.7660    -0.9690    -0.5490 h1         1 BA1       0.016200
     58 H3B         -0.9930     3.3310    -6.3530 ha         1 BA1       0.122500
     59 HO4'         0.6650     4.3860    -7.7650 ho         1 BA1       0.386000
     60 HO6'         1.8910     4.8390    -1.7790 ho         1 BA1       0.386000
     61 H7B          0.2420     3.4470    -2.2440 ha         1 BA1       0.122500
     62 H2OA         5.8400     5.5050    -4.8160 ho         1 BA1       0.390000
     63 H112         6.1970     6.5850    -2.5360 ha         1 BA1       0.091000
     64 H122         5.2940     8.5340    -1.3440 ha         1 BA1       0.083000
     65 H132         3.0810     9.4400    -1.9300 ha         1 BA1       0.132000
@<TRIPOS>BOND
     1     1     2 1   
     2     1     9 2   
     3     1    10 1   
     4     2     3 ar  
     5     2     8 ar  
     6     3     4 ar  
     7     3    41 1   
     8     4     5 ar  
     9     4    42 1   
    10     5     6 1   
    11     5     7 ar  
    12     6    43 1   
    13     7     8 ar  
    14     7    44 1   
    15     8    45 1   
    16    10    13 1   
    17    10    46 1   
    18    11    12 1   
    19    11    17 1   
    20    11    47 1   
    21    12    13 1   
    22    12    48 1   
    23    12    49 1   
    24    13    14 1   
    25    13    50 1   
    26    14    15 1   
    27    14    18 1   
    28    14    51 1   
    29    15    16 1   
    30    15    52 1   
    31    15    53 1   
    32    16    17 1   
    33    16    54 1   
    34    16    55 1   
    35    17    56 1   
    36    17    57 1   
    37    18    19 1   
    38    19    20 2   
    39    19    21 1   
    40    21    22 ar  
    41    21    28 ar  
    42    22    23 ar  
    43    22    58 1   
    44    23    24 1   
    45    23    25 ar  
    46    24    59 1   
    47    25    26 ar  
    48    25    29 1   
    49    26    27 1   
    50    26    28 ar  
    51    27    60 1   
    52    28    61 1   
    53    29    30 2   
    54    29    31 1   
    55    31    32 ar  
    56    31    37 ar  
    57    32    33 1   
    58    32    34 ar  
    59    33    62 1   
    60    34    35 ar  
    61    34    63 1   
    62    35    36 ar  
    63    35    64 1   
    64    36    37 ar  
    65    36    65 1   
    66    37    38 1   
    67    38    39 1   
    68    38    40 1   
@<TRIPOS>SUBSTRUCTURE
     1 BA1         1 TEMP              0 ****  ****    0 ROOT
