@<TRIPOS>MOLECULE
BA2
   86    90     1     0     0
SMALL
bcc


@<TRIPOS>ATOM
      1 O31        -0.2250    0.1290    2.2880 o         1 BA2     -0.591500
      2 C30         0.9110    0.0060    1.8060 c         1 BA2      0.758500
      3 N32         2.0920   -0.2320    2.5670 n         1 BA2     -0.539900
      4 C33         3.2600   -0.1240    1.7140 c3        1 BA2      0.073700
      5 C28         2.6630    0.0310    0.2410 c3        1 BA2      0.069700
      6 N29         1.2190   -0.0130    0.4150 n         1 BA2     -0.524900
      7 C27         3.2260    1.2720   -0.4360 c3        1 BA2     -0.031300
      8 C26         4.2820    0.9800    2.0100 c3        1 BA2     -0.004600
      9 S25         4.6470    1.8080    0.4670 ss        1 BA2     -0.336200
     10 C24         3.8840    1.9620    3.0890 c3        1 BA2     -0.071400
     11 C23         4.9510    3.0220    3.2860 c3        1 BA2     -0.094400
     12 C22         4.5140    4.0340    4.3230 c3        1 BA2     -0.084400
     13 C21         5.5520    5.1240    4.5260 c3        1 BA2     -0.149400
     14 C19         6.7530    4.6000    5.2590 c         1 BA2      0.547100
     15 O20         6.8850    3.5590    5.8790 o         1 BA2     -0.396100
     16 N18         7.9640    5.5310    5.2550 n4        1 BA2     -0.686800
     17 C17         9.2740    4.8150    5.3010 c3        1 BA2      0.097800
     18 C16         9.6860    4.2130    3.9620 c3        1 BA2     -0.102400
     19 C15        11.0140    3.5010    4.1320 c3        1 BA2     -0.085400
     20 C14        11.6260    3.0950    2.7930 c3        1 BA2      0.171800
     21 N13        10.9000    2.0180    2.1320 nh        1 BA2     -0.753200
     22 C8         11.5190    1.5360    0.9490 cc        1 BA2      0.580700
     23 N9         11.0680    0.3230    0.2910 na        1 BA2     -0.303000
     24 C4         11.8450    0.2190   -0.8780 ca        1 BA2      0.476800
     25 C5         12.7400    1.3620   -0.8680 ca        1 BA2     -0.214200
     26 N7         12.5240    2.1480    0.2680 nd        1 BA2     -0.557100
     27 C6         13.6690    1.5010   -1.9590 ca        1 BA2      0.781200
     28 N6         14.5360    2.5460   -2.0130 nh        1 BA2     -0.923500
     29 N3         11.8640   -0.7390   -1.8530 nb        1 BA2     -0.857000
     30 C2         12.7820   -0.4810   -2.8260 ca        1 BA2      0.697900
     31 N1         13.6550    0.5360   -2.9530 nb        1 BA2     -0.763000
     32 C1'         9.8750   -0.4090    0.6270 c3        1 BA2      0.270800
     33 C2'         8.5830    0.0410   -0.1290 c3        1 BA2      0.123100
     34 O2'         7.6670    0.3980    0.8790 oh        1 BA2     -0.598800
     35 C3'         8.1340   -1.1910   -0.9490 c3        1 BA2      0.091100
     36 O3'         6.8000   -1.4790   -0.5900 oh        1 BA2     -0.575800
     37 C4'         9.0700   -2.3380   -0.5130 c3        1 BA2      0.093100
     38 O4'        10.0620   -1.8150    0.3710 os        1 BA2     -0.425600
     39 C5'         9.7290   -3.0310   -1.7210 c3        1 BA2      0.097800
     40 N10        11.0960   -3.5380   -1.4280 n4        1 BA2     -0.760000
     41 C11        11.6070   -4.4420   -2.5000 c3        1 BA2      0.112800
     42 C12        12.9860   -4.9850   -2.1890 c3        1 BA2     -0.136100
     43 H32         2.1220    0.1060    3.4980 hn        1 BA2      0.324500
     44 H29         0.6430    0.5240   -0.1910 hn        1 BA2      0.329500
     45 H33         3.8010   -1.1150    1.7660 h1        1 BA2      0.089700
     46 H28         2.9570   -0.8800   -0.3550 h1        1 BA2      0.089700
     47 H26         5.2500    0.4960    2.3160 h1        1 BA2      0.089700
     48 H271        2.4830    2.1060   -0.4890 h1        1 BA2      0.089700
     49 H272        3.5470    1.0430   -1.4810 h1        1 BA2      0.089700
     50 H241        2.9120    2.4580    2.8250 hc        1 BA2      0.063200
     51 H242        3.7380    1.4160    4.0600 hc        1 BA2      0.063200
     52 H231        5.9070    2.5350    3.6150 hc        1 BA2      0.053200
     53 H232        5.1460    3.5350    2.3040 hc        1 BA2      0.053200
     54 H221        4.3070    3.5180    5.2990 hc        1 BA2      0.086200
     55 H222        3.5600    4.5280    3.9920 hc        1 BA2      0.086200
     56 H211        5.1070    5.9560    5.1430 hc        1 BA2      0.104700
     57 H212        5.8520    5.5470    3.5290 hc        1 BA2      0.104700
     58 H18         7.9290    6.1200    4.4160 hn        1 BA2      0.460300
     59 H171        9.1950    4.0000    6.0810 hx        1 BA2      0.116700
     60 H172       10.0530    5.5600    5.6380 hx        1 BA2      0.116700
     61 H161        8.9120    3.4840    3.6030 hc        1 BA2      0.072200
     62 H162        9.7870    5.0170    3.1860 hc        1 BA2      0.072200
     63 H151       11.7510    4.1880    4.6310 hc        1 BA2      0.067200
     64 H152       10.8840    2.6080    4.7990 hc        1 BA2      0.067200
     65 H141       12.7050    2.8170    2.9820 h1        1 BA2      0.074700
     66 H142       11.6210    3.9820    2.0960 h1        1 BA2      0.074700
     67 H13        10.6850    1.2690    2.7670 hn        1 BA2      0.393800
     68 H1'         9.7080   -0.3420    1.7470 h2        1 BA2      0.115700
     69 H6N1       15.1800    2.6380   -2.7630 hn        1 BA2      0.465800
     70 H6N2       14.5290    3.2230   -1.2880 hn        1 BA2      0.465800
     71 H2'         8.7620    0.9140   -0.8120 h1        1 BA2      0.083700
     72 HA          6.7870    0.4910    0.4660 ho        1 BA2      0.453000
     73 H3'         8.2210   -0.9810   -2.0490 h1        1 BA2      0.072700
     74 HB          6.3940   -1.9530   -1.3270 ho        1 BA2      0.425000
     75 H4'         8.4960   -3.0990    0.0910 h1        1 BA2      0.105700
     76 H5'1        9.0780   -3.8990   -2.0270 hx        1 BA2      0.105700
     77 H5'2        9.8140   -2.3200   -2.5920 hx        1 BA2      0.105700
     78 H10        11.7220   -2.7110   -1.3280 hn        1 BA2      0.471300
     79 H111       11.6290   -3.8490   -3.4600 hx        1 BA2      0.100700
     80 H112       10.8750   -5.2920   -2.6190 hx        1 BA2      0.100700
     81 H121       13.7410   -4.1680   -2.0870 hc        1 BA2      0.081033
     82 H122       13.2980   -5.6450   -3.0390 hc        1 BA2      0.081033
     83 H123       12.9880   -5.5990   -1.2550 hc        1 BA2      0.081033
     84 H2C        12.8180   -1.2220   -3.6560 h5        1 BA2      0.048100
     85 H182        7.8960    6.1380    6.0800 hn        1 BA2      0.460300
     86 H102       11.0900   -4.0310   -0.5290 hn        1 BA2      0.471300
@<TRIPOS>BOND
     1    1    2 2   
     2    2    3 1   
     3    2    6 1   
     4    3    4 1   
     5    3   43 1   
     6    4    5 1   
     7    4    8 1   
     8    4   45 1   
     9    5    6 1   
    10    5    7 1   
    11    5   46 1   
    12    6   44 1   
    13    7    9 1   
    14    7   48 1   
    15    7   49 1   
    16    8    9 1   
    17    8   10 1   
    18    8   47 1   
    19   10   11 1   
    20   10   50 1   
    21   10   51 1   
    22   11   12 1   
    23   11   52 1   
    24   11   53 1   
    25   12   13 1   
    26   12   54 1   
    27   12   55 1   
    28   13   14 1   
    29   13   56 1   
    30   13   57 1   
    31   14   15 2   
    32   14   16 1   
    33   16   17 1   
    34   16   58 1   
    35   16   85 1   
    36   17   18 1   
    37   17   59 1   
    38   17   60 1   
    39   18   19 1   
    40   18   61 1   
    41   18   62 1   
    42   19   20 1   
    43   19   63 1   
    44   19   64 1   
    45   20   21 1   
    46   20   65 1   
    47   20   66 1   
    48   21   22 1   
    49   21   67 1   
    50   22   23 1   
    51   22   26 2   
    52   23   24 1   
    53   23   32 1   
    54   24   25 ar  
    55   24   29 ar  
    56   25   26 1   
    57   25   27 ar  
    58   27   28 1   
    59   27   31 ar  
    60   28   69 1   
    61   28   70 1   
    62   29   30 ar  
    63   30   31 ar  
    64   30   84 1   
    65   32   33 1   
    66   32   38 1   
    67   32   68 1   
    68   33   34 1   
    69   33   35 1   
    70   33   71 1   
    71   34   72 1   
    72   35   36 1   
    73   35   37 1   
    74   35   73 1   
    75   36   74 1   
    76   37   38 1   
    77   37   39 1   
    78   37   75 1   
    79   39   40 1   
    80   39   76 1   
    81   39   77 1   
    82   40   41 1   
    83   40   78 1   
    84   40   86 1   
    85   41   42 1   
    86   41   79 1   
    87   41   80 1   
    88   42   81 1   
    89   42   82 1   
    90   42   83 1   
@<TRIPOS>SUBSTRUCTURE
     1 BA2         1 TEMP              0 ****  ****    0 ROOT
