@<TRIPOS>MOLECULE
BA4
   50    51     1     0     0
SMALL
bcc


@<TRIPOS>ATOM
      1 OAR          0.0000     0.0000     0.0000 o          1 BA4      -0.596000
      2 CAP          1.2160     0.0000     0.0000 c          1 BA4       0.640100
      3 NAO          1.8890     0.0000     1.1670 ns         1 BA4       0.001900
      4 CAS          1.1940     0.1120     2.3770 ca         1 BA4      -0.088400
      5 CAT          1.6640    -0.5340     3.5120 ca         1 BA4      -0.115000
      6 CAU          0.9760    -0.4210     4.7040 ca         1 BA4      -0.082000
      7 CAV         -0.1810     0.3340     4.7680 ca         1 BA4      -0.112000
      8 CAW         -0.6520     0.9790     3.6380 ca         1 BA4      -0.082000
      9 CAX          0.0350     0.8740     2.4450 ca         1 BA4      -0.115000
     10 OAQ          1.8890    -0.0060    -1.1650 os         1 BA4      -0.124600
     11 NAY          1.2260    -0.0100    -2.1870 n2         1 BA4      -0.321200
     12 CAA          1.8120    -0.0150    -3.3360 c2         1 BA4       0.439600
     13 OAL          3.1680    -0.0160    -3.4300 os         1 BA4      -0.398400
     14 CAE          3.7310    -1.0210    -4.2810 c3         1 BA4       0.170100
     15 CAF          5.2390    -0.7960    -4.4070 c3         1 BA4       0.223400
     16 OAM          5.8580    -0.9880    -3.1340 oh         1 BA4      -0.584800
     17 CAD          3.0840    -0.9320    -5.6650 c3         1 BA4       0.138100
     18 OAK          3.6180    -1.9550    -6.5080 oh         1 BA4      -0.583800
     19 CAC          1.5700    -1.1210    -5.5310 c3         1 BA4       0.156100
     20 OAJ          0.9590    -1.0290    -6.8200 oh         1 BA4      -0.578800
     21 CAB          1.0100    -0.0270    -4.6190 c3         1 BA4      -0.012600
     22 NAI         -0.3970    -0.3070    -4.3200 ns         1 BA4      -0.177900
     23 CAG         -1.2230     0.6980    -3.9680 c          1 BA4       0.590100
     24 OAN         -0.8030     1.8330    -3.8990 o          1 BA4      -0.642100
     25 CAH         -2.6710     0.4100    -3.6600 c3         1 BA4      -0.095400
     26 C1          -3.3820     1.7130    -3.2910 c3         1 BA4      -0.014400
     27 C2          -4.8510     1.4210    -2.9790 c3         1 BA4       0.002900
     28 HNAO         2.8890    -0.0570     1.1680 hn         1 BA4       0.169500
     29 HAT          2.5700    -1.1260     3.4630 ha         1 BA4       0.124500
     30 HAU          1.3420    -0.9260     5.5900 ha         1 BA4       0.103500
     31 HAV         -0.7210     0.4190     5.7040 ha         1 BA4       0.103000
     32 HAW         -1.5570     1.5710     3.6910 ha         1 BA4       0.103500
     33 HAX         -0.3350     1.3790     1.5610 ha         1 BA4       0.124500
     34 HAE          3.5410    -1.9990    -3.8570 h1         1 BA4       0.032700
     35 HAF          5.4260     0.2140    -4.7500 h1         1 BA4       0.000200
     36 HAD          3.2880     0.0400    -6.0960 h1         1 BA4       0.028700
     37 HOAK         3.8050    -1.5950    -7.3590 ho         1 BA4       0.402000
     38 HAC          1.3650    -2.0910    -5.0970 h1         1 BA4       0.017700
     39 HOAJ         0.6280    -1.8760    -7.0720 ho         1 BA4       0.398000
     40 HAB          1.0990     0.9350    -5.1100 h1         1 BA4       0.081700
     41 HNAI        -0.7530    -1.2380    -4.4160 hn         1 BA4       0.169500
     42 HAH         -3.1450    -0.0270    -4.5300 hc         1 BA4       0.028200
     43 HAHA        -2.7320    -0.2830    -2.8290 hc         1 BA4       0.028200
     44 H1          -3.3200     2.4060    -4.1210 hc         1 BA4       0.028700
     45 H1A         -2.9070     2.1490    -2.4200 hc         1 BA4       0.028700
     46 H2          -4.9120     0.7280    -2.1480 hc         1 BA4      -0.001300
     47 H2A         -5.3550     2.3430    -2.7170 hc         1 BA4      -0.001300
     48 H2B         -5.3250     0.9840    -3.8490 hc         1 BA4      -0.001300
     49 H22          5.6510    -1.5010    -5.1180 h1         1 BA4       0.000200
     50 H23          6.7930    -0.9030    -3.2230 ho         1 BA4       0.391000
@<TRIPOS>BOND
     1     1     2 2   
     2     2     3 1   
     3     2    10 1   
     4     3     4 1   
     5     3    28 1   
     6     4     5 ar  
     7     4     9 ar  
     8     5     6 ar  
     9     5    29 1   
    10     6     7 ar  
    11     6    30 1   
    12     7     8 ar  
    13     7    31 1   
    14     8     9 ar  
    15     8    32 1   
    16     9    33 1   
    17    10    11 1   
    18    11    12 2   
    19    12    13 1   
    20    12    21 1   
    21    13    14 1   
    22    14    15 1   
    23    14    17 1   
    24    14    34 1   
    25    15    16 1   
    26    15    35 1   
    27    15    49 1   
    28    16    50 1   
    29    17    18 1   
    30    17    19 1   
    31    17    36 1   
    32    18    37 1   
    33    19    20 1   
    34    19    21 1   
    35    19    38 1   
    36    20    39 1   
    37    21    22 1   
    38    21    40 1   
    39    22    23 1   
    40    22    41 1   
    41    23    24 2   
    42    23    25 1   
    43    25    26 1   
    44    25    42 1   
    45    25    43 1   
    46    26    27 1   
    47    26    44 1   
    48    26    45 1   
    49    27    46 1   
    50    27    47 1   
    51    27    48 1   
@<TRIPOS>SUBSTRUCTURE
     1 BA4         1 TEMP              0 ****  ****    0 ROOT
