@<TRIPOS>MOLECULE
molecule
   50    51     1     0     0
SMALL
bcc


@<TRIPOS>ATOM
      1 OAR          0.0000     0.0000     0.0000 o          1 BA4      -0.549000
      2 CAP          1.2160     0.0000     0.0000 c          1 BA4       0.749100
      3 NAO          1.8890     0.0000     1.1670 ns         1 BA4      -0.459100
      4 CAS          1.1940     0.1120     2.3770 ca         1 BA4       0.070600
      5 CAT          1.6640    -0.5340     3.5120 ca         1 BA4      -0.142500
      6 CAU          0.9760    -0.4210     4.7040 ca         1 BA4      -0.111000
      7 CAV         -0.1810     0.3340     4.7680 ca         1 BA4      -0.143000
      8 CAW         -0.6520     0.9790     3.6380 ca         1 BA4      -0.111000
      9 CAX          0.0350     0.8740     2.4450 ca         1 BA4      -0.142500
     10 OAQ          1.8890    -0.0060    -1.1650 os         1 BA4      -0.130600
     11 NAY          1.2260    -0.0100    -2.1870 n2         1 BA4      -0.413200
     12 CAA          1.8120    -0.0150    -3.3360 c2         1 BA4       0.506600
     13 OAL          3.1680    -0.0160    -3.4300 os         1 BA4      -0.424400
     14 CAE          3.7310    -1.0210    -4.2810 c3         1 BA4       0.150100
     15 CAF          5.2390    -0.7960    -4.4070 c3         1 BA4       0.150400
     16 OAM          5.8580    -0.9880    -3.1340 oh         1 BA4      -0.598800
     17 CAD          3.0840    -0.9320    -5.6650 c3         1 BA4       0.099100
     18 OAK          3.6180    -1.9550    -6.5080 oh         1 BA4      -0.601800
     19 CAC          1.5700    -1.1210    -5.5310 c3         1 BA4       0.116100
     20 OAJ          0.9590    -1.0290    -6.8200 oh         1 BA4      -0.593800
     21 CAB          1.0100    -0.0270    -4.6190 c3         1 BA4       0.092400
     22 NAI         -0.3970    -0.3070    -4.3200 ns         1 BA4      -0.573900
     23 CAG         -1.2230     0.6980    -3.9680 c          1 BA4       0.675100
     24 OAN         -0.8030     1.8330    -3.8990 o          1 BA4      -0.600100
     25 CAH         -2.6710     0.4100    -3.6600 c3         1 BA4      -0.153400
     26 C1          -3.3820     1.7130    -3.2910 c3         1 BA4      -0.068400
     27 C2          -4.8510     1.4210    -2.9790 c3         1 BA4      -0.095100
     28 HNAO         2.8880    -0.0680     1.1680 hn         1 BA4       0.336500
     29 HAT          2.5700    -1.1260     3.4630 ha         1 BA4       0.148500
     30 HAU          1.3420    -0.9260     5.5900 ha         1 BA4       0.133500
     31 HAV         -0.7210     0.4190     5.7040 ha         1 BA4       0.130000
     32 HAW         -1.5570     1.5710     3.6910 ha         1 BA4       0.133500
     33 HAX         -0.3350     1.3790     1.5610 ha         1 BA4       0.148500
     34 HAE          3.5410    -1.9990    -3.8570 h1         1 BA4       0.069700
     35 HAF          5.6510    -1.5010    -5.1180 h1         1 BA4       0.039200
     36 HAD          3.2880     0.0400    -6.0960 h1         1 BA4       0.063700
     37 HOAK         3.8280    -1.5890    -7.3510 ho         1 BA4       0.416000
     38 HAC          1.3650    -2.0910    -5.0970 h1         1 BA4       0.053700
     39 HOAJ         0.6270    -1.8750    -7.0720 ho         1 BA4       0.413000
     40 HAB          1.0990     0.9350    -5.1100 h1         1 BA4       0.116700
     41 HNAI        -0.7530    -1.2380    -4.4150 hn         1 BA4       0.314500
     42 HAH         -2.7320    -0.2830    -2.8290 hc         1 BA4       0.060700
     43 HAHA        -3.1450    -0.0270    -4.5300 hc         1 BA4       0.060700
     44 H1          -2.9070     2.1490    -2.4200 hc         1 BA4       0.059200
     45 H1A         -3.3200     2.4060    -4.1210 hc         1 BA4       0.059200
     46 H2          -5.3330     1.0130    -3.8590 hc         1 BA4       0.032700
     47 H2A         -5.3470     2.3380    -2.6870 hc         1 BA4       0.032700
     48 H2B         -4.9120     0.7040    -2.1690 hc         1 BA4       0.032700
     49 H22          5.4260     0.2140    -4.7500 h1         1 BA4       0.039200
     50 H23          6.7920    -1.0590    -3.2460 ho         1 BA4       0.405000
@<TRIPOS>BOND
     1     1     2 2
     2     2    10 1
     3     3     2 1
     4     3    28 1
     5     4     3 1
     6     5     4 ar
     7     5    29 1
     8     6     5 ar
     9     6    30 1
    10     7     6 ar
    11     7     8 ar
    12     7    31 1
    13     8     9 ar
    14     8    32 1
    15     9     4 ar
    16     9    33 1
    17    10    11 1
    18    11    12 2
    19    12    13 1
    20    12    21 1
    21    13    14 1
    22    14    15 1
    23    14    17 1
    24    14    34 1
    25    15    16 1
    26    15    35 1
    27    17    18 1
    28    17    36 1
    29    18    37 1
    30    19    17 1
    31    19    20 1
    32    19    38 1
    33    20    39 1
    34    21    19 1
    35    21    40 1
    36    22    21 1
    37    22    23 1
    38    22    41 1
    39    23    24 2
    40    25    23 1
    41    25    42 1
    42    25    43 1
    43    26    25 1
    44    26    44 1
    45    26    45 1
    46    27    26 1
    47    27    46 1
    48    27    47 1
    49    27    48 1
    50    15    49 1
    51    16    50 1
@<TRIPOS>SUBSTRUCTURE
     1 BA4         1 TEMP              0 ****  ****    0 ROOT
