@<TRIPOS>MOLECULE
molecule
   27    28     1     0     0
SMALL
bcc


@<TRIPOS>ATOM
      1 C2           0.0000     0.0000     0.0000 cc         1 BA5       0.078800
      2 C3           1.4670     0.0000     0.0000 ca         1 BA5      -0.247100
      3 C4           2.1570     0.0000     1.2270 ca         1 BA5       0.612200
      4 C6           4.1840    -0.0000     0.1230 ca         1 BA5       0.502200
      5 C7           3.5720     0.0000    -1.1210 ca         1 BA5      -0.261300
      6 C8           2.1910    -0.0000    -1.1970 ca         1 BA5      -0.110000
      7 C9          -0.6580     0.0060     1.2390 cd         1 BA5      -0.164400
      8 C10         -2.1210     0.0130     1.2990 c          1 BA5       0.665300
      9 C12         -4.1980     0.1360     2.4710 c3         1 BA5       0.132700
     10 C14          0.1070     0.0070     2.4320 c          1 BA5       0.696700
     11 N1          -0.7050    -0.0010    -1.1720 nz         1 BA5      -0.661400
     12 N5           3.4830     0.0000     1.2370 nb         1 BA5      -0.705000
     13 O11         -2.7460     0.1380     2.4870 os         1 BA5      -0.345900
     14 O13         -2.7720    -0.0960     0.2770 o          1 BA5      -0.605000
     15 N15          1.4500     0.0010     2.4090 n          1 BA5      -0.276800
     16 O16          2.1590     0.0020     3.6350 oh         1 BA5      -0.303100
     17 O17         -0.4680     0.0130     3.5060 o          1 BA5      -0.514500
     18 H1           5.2010    -0.0010     0.4960 h4         1 BA5       0.074100
     19 H2           4.3050    -0.0020    -1.9180 ha         1 BA5       0.179000
     20 H3           2.1490    -0.0050    -2.2800 ha         1 BA5       0.191000
     21 H4          -4.5540     0.9620     1.8660 h1         1 BA5       0.069033
     22 H5          -4.5710     0.2430     3.4820 h1         1 BA5       0.069033
     23 H6          -4.5530    -0.7980     2.0520 h1         1 BA5       0.069033
     24 H7          -1.2430    -0.8430    -1.2370 hn         1 BA5       0.476133
     25 H8          -0.0700     0.0490    -1.9440 hn         1 BA5       0.476133
     26 H9           2.3390    -0.8860     3.8950 ho         1 BA5       0.428000
     27 H13         -1.3210     0.7880    -1.1920 hn         1 BA5       0.476133
@<TRIPOS>BOND
     1    16    15 1
     2    17    10 2
     3    15    10 1
     4    15     3 1
     5    12     4 ar
     6    12     3 ar
     7    10     7 1
     8     4     5 ar
     9     3     2 ar
    10     7     8 1
    11     7     1 2
    12     2     1 1
    13     2     6 ar
    14     5     6 ar
    15    13     8 1
    16    13     9 1
    17     8    14 2
    18     1    11 1
    19     4    18 1
    20     5    19 1
    21     6    20 1
    22     9    21 1
    23     9    22 1
    24     9    23 1
    25    11    24 1
    26    11    25 1
    27    16    26 1
    28    27    11 1
@<TRIPOS>SUBSTRUCTURE
     1 BA5         1 TEMP              0 ****  ****    0 ROOT
