@<TRIPOS>MOLECULE
BA5
   27    28     1     0     0
SMALL
bcc


@<TRIPOS>ATOM
      1 C2           0.0000     0.0000     0.0000 cc         1 BA5      -0.179200
      2 C3           1.4670     0.0000     0.0000 ca         1 BA5      -0.216100
      3 C4           2.1570     0.0000     1.2270 ca         1 BA5       0.398200
      4 C6           4.1840    -0.0000     0.1230 ca         1 BA5       0.482200
      5 C7           3.5720     0.0000    -1.1210 ca         1 BA5      -0.210300
      6 C8           2.1910    -0.0000    -1.1970 ca         1 BA5      -0.095000
      7 C9          -0.6580     0.0060     1.2390 cd         1 BA5      -0.130400
      8 C10         -2.1210     0.0130     1.2990 c          1 BA5       0.735300
      9 C12         -4.1980     0.1360     2.4710 c3         1 BA5       0.264700
     10 C14          0.1070     0.0070     2.4320 c          1 BA5       0.566700
     11 N1          -0.7050    -0.0010    -1.1720 nz         1 BA5       0.260600
     12 N5           3.4830     0.0000     1.2370 nb         1 BA5      -0.601000
     13 O11         -2.7460     0.1380     2.4870 os         1 BA5      -0.328900
     14 O13         -2.7720    -0.0960     0.2770 o          1 BA5      -0.646000
     15 N15          1.4500     0.0010     2.4090 n          1 BA5       0.184200
     16 O16          2.1590     0.0020     3.6350 oh         1 BA5      -0.401100
     17 O17         -0.4680     0.0130     3.5060 o          1 BA5      -0.572500
     18 H1           5.2010    -0.0010     0.4960 h4         1 BA5       0.020100
     19 H2           4.3050    -0.0020    -1.9180 ha         1 BA5       0.145000
     20 H3           2.1490    -0.0050    -2.2800 ha         1 BA5       0.163000
     21 H4          -4.5540     0.9620     1.8660 h1         1 BA5       0.016700
     22 H5          -4.5710     0.2430     3.4820 h1         1 BA5       0.016700
     23 H6          -4.5530    -0.7980     2.0520 h1         1 BA5       0.016700
     24 H7          -1.2430    -0.8430    -1.2370 hn         1 BA5       0.228800
     25 H8          -0.0700     0.0490    -1.9440 hn         1 BA5       0.228800
     26 H9           2.3390    -0.8860     3.8950 ho         1 BA5       0.424000
     27 H13         -1.3210     0.7880    -1.1920 hn         1 BA5       0.228800
@<TRIPOS>BOND
     1     1     2 1   
     2     1     7 2   
     3     1    11 1   
     4     2     3 ar  
     5     2     6 ar  
     6     3    12 ar  
     7     3    15 1   
     8     4     5 ar  
     9     4    12 ar  
    10     4    18 1   
    11     5     6 ar  
    12     5    19 1   
    13     6    20 1   
    14     7     8 1   
    15     7    10 1   
    16     8    13 1   
    17     8    14 2   
    18     9    13 1   
    19     9    21 1   
    20     9    22 1   
    21     9    23 1   
    22    10    15 1   
    23    10    17 2   
    24    11    24 1   
    25    11    25 1   
    26    11    27 1   
    27    15    16 1   
    28    16    26 1   
@<TRIPOS>SUBSTRUCTURE
     1 BA5         1 TEMP              0 ****  ****    0 ROOT
