@<TRIPOS>MOLECULE
molecule
   46    49     1     0     0
SMALL
bcc


@<TRIPOS>ATOM
      1 C1           0.0000     0.0000     0.0000 ca         1 BA8      -0.128300
      2 C2           1.3900     0.0000     0.0000 ca         1 BA8       0.158100
      3 C3           2.0880     0.0000     1.1980 ca         1 BA8      -0.268000
      4 C8          -0.7380    -0.0070     3.6810 cc         1 BA8      -0.010300
      5 C9          -0.5130     0.8130     4.7520 cc         1 BA8      -0.307300
      6 C10         -1.4250     0.4720     5.7520 cc         1 BA8       0.329200
      7 C13         -2.3230    -1.8370     3.2060 ca         1 BA8       0.037800
      8 C14         -3.7000    -1.9190     3.0400 ca         1 BA8       0.030400
      9 C15         -4.2410    -2.9120     2.2440 ca         1 BA8      -0.116000
     10 C16         -3.4130    -3.8220     1.6150 ca         1 BA8      -0.122000
     11 C21         -0.7510    -0.0000    -1.3060 c3         1 BA8      -0.017100
     12 C22         -3.3020     2.2600    -4.5540 ca         1 BA8      -0.091000
     13 C24         -1.7860     0.5780    -5.3100 ca         1 BA8       0.422200
     14 N25         -1.1620     0.6080    -4.1480 nb         1 BA8      -0.692000
     15 C27         -2.6170     2.2690    -3.3480 ca         1 BA8      -0.249300
     16 C4           1.4020    -0.0010     2.4000 ca         1 BA8       0.165100
     17 C5           0.0010    -0.0010     2.4010 ca         1 BA8      -0.074000
     18 C6          -0.6930    -0.0050     1.1920 ca         1 BA8      -0.061000
     19 O7           2.0660    -0.0010    -1.1790 oh         1 BA8      -0.500100
     20 N11         -2.1760    -0.5090     5.3160 nd         1 BA8      -0.485800
     21 N12         -1.7710    -0.8360     4.0160 na         1 BA8       0.135300
     22 C17         -2.0420    -3.7430     1.7780 ca         1 BA8      -0.119000
     23 C18         -1.4950    -2.7530     2.5710 ca         1 BA8      -0.124000
     24 Cl          -4.7400    -0.7760     3.8320 cl         1 BA8      -0.076400
     25 O20          2.0850    -0.0020     3.5740 oh         1 BA8      -0.494100
     26 C23         -2.8750     1.3950    -5.5500 ca         1 BA8      -0.261300
     27 C26         -1.5400     1.4190    -3.1800 ca         1 BA8       0.428600
     28 C28         -0.7890     1.4190    -1.8740 c3         1 BA8      -0.120700
     29 H1           3.1710     0.0000     1.1940 ha         1 BA8       0.142000
     30 H2           0.2410     1.5880     4.8150 ha         1 BA8       0.166000
     31 H3          -1.5000     0.9410     6.7260 h4         1 BA8       0.050100
     32 H4          -5.3150    -2.9760     2.1140 ha         1 BA8       0.149000
     33 H5          -3.8390    -4.5990     0.9920 ha         1 BA8       0.139000
     34 H6          -0.2530    -0.6570    -2.0090 hc         1 BA8       0.061700
     35 H7          -1.7630    -0.3490    -1.1410 hc         1 BA8       0.061700
     36 H9          -1.4470    -0.1020    -6.0830 h4         1 BA8       0.021100
     37 H10         -2.9220     2.9330    -2.5490 ha         1 BA8       0.139000
     38 H11         -1.7760    -0.0050     1.1890 ha         1 BA8       0.152000
     39 H12          2.7220    -0.6770    -1.1640 ho         1 BA8       0.422000
     40 H13         -1.3970    -4.4580     1.2830 ha         1 BA8       0.139000
     41 H14         -0.4210    -2.6920     2.6980 ha         1 BA8       0.149000
     42 H15          2.8180    -0.5920     3.5110 ho         1 BA8       0.422000
     43 H16         -3.3850     1.3630    -6.5050 ha         1 BA8       0.137000
     44 H17          0.2230     1.7690    -2.0400 hc         1 BA8       0.062700
     45 H18         -1.2870     2.0760    -1.1720 hc         1 BA8       0.062700
     46 H8          -4.1510     2.9130    -4.7150 ha         1 BA8       0.137000
@<TRIPOS>BOND
     1     6    20 2
     2     6     5 1
     3    20    21 1
     4     5     4 2
     5     4    21 1
     6     4    17 1
     7    21     7 1
     8    24     8 1
     9     7     8 ar
    10     7    23 ar
    11    17    18 ar
    12    17    16 ar
    13     8     9 ar
    14    25    16 1
    15    18     1 ar
    16    16     3 ar
    17    15    12 ar
    18    15    27 ar
    19    28    27 1
    20    28    11 1
    21    23    22 ar
    22    12    26 ar
    23     9    10 ar
    24    27    14 ar
    25    26    13 ar
    26     1    11 1
    27     1     2 ar
    28    14    13 ar
    29     3     2 ar
    30    22    10 ar
    31     2    19 1
    32     3    29 1
    33     5    30 1
    34     6    31 1
    35     9    32 1
    36    10    33 1
    37    11    34 1
    38    11    35 1
    39    12    46 1
    40    13    36 1
    41    15    37 1
    42    18    38 1
    43    19    39 1
    44    22    40 1
    45    23    41 1
    46    25    42 1
    47    26    43 1
    48    28    44 1
    49    28    45 1
@<TRIPOS>SUBSTRUCTURE
     1 BA8         1 TEMP              0 ****  ****    0 ROOT
