@<TRIPOS>MOLECULE
BAA
   40    39     1     0     0
SMALL
bcc


@<TRIPOS>ATOM
      1 N3           0.0000     0.0000     0.0000 nz         1 BAA       0.195600
      2 C1           1.3470     0.0000     0.0000 c          1 BAA       0.306100
      3 O1           1.9520    -0.0000    -1.0510 o          1 BAA      -0.395100
      4 CA1          2.1020     0.0000     1.3040 c3         1 BAA      -0.043300
      5 CB1          1.7330     1.2470     2.1060 c3         1 BAA      -0.019100
      6 N1           3.5410    -0.0010     1.0350 ns         1 BAA      -0.202900
      7 C2           4.3910    -0.5840     1.9040 c          1 BAA       0.583100
      8 O2           3.9610    -1.1090     2.9090 o          1 BAA      -0.620100
      9 CA2          5.8710    -0.5840     1.6280 c3         1 BAA      -0.031300
     10 CB2          6.1440    -1.3040     0.3060 c3         1 BAA      -0.014100
     11 N2           6.5710    -1.2740     2.7140 ns         1 BAA      -0.168900
     12 C3           7.8280    -0.9180     3.0380 c          1 BAA       0.697100
     13 O3           8.3830    -0.0240     2.4300 o          1 BAA      -0.663000
     14 O4           8.4720    -1.5530     4.0350 os         1 BAA      -0.419900
     15 C4           9.8290    -1.1690     4.3850 c3         1 BAA       0.200800
     16 C41         10.3230    -2.0400     5.5410 c3         1 BAA      -0.027767
     17 C42         10.7420    -1.3640     3.1740 c3         1 BAA      -0.027767
     18 C43          9.8490     0.3000     4.8090 c3         1 BAA      -0.027767
     19 HN31        -0.3340    -0.9260     0.1810 hn         1 BAA       0.252133
     20 HN32        -0.3340     0.6200     0.7110 hn         1 BAA       0.252133
     21 HA1          1.8400    -0.8850     1.8720 h1         1 BAA       0.092700
     22 HB11         0.7980     1.0780     2.6270 hc         1 BAA       0.032700
     23 HB12         1.6240     2.0900     1.4340 hc         1 BAA       0.032700
     24 HB13         2.5140     1.4580     2.8260 hc         1 BAA       0.032700
     25 HN1          3.8970     0.4530     0.2170 hn         1 BAA       0.208500
     26 HA2          6.2260     0.4380     1.5630 h1         1 BAA       0.079700
     27 HB21         6.8080    -2.1410     0.4810 hc         1 BAA       0.019033
     28 HB22         5.2100    -1.6640    -0.1090 hc         1 BAA       0.019033
     29 HB23         6.6060    -0.6160    -0.3920 hc         1 BAA       0.019033
     30 HN2          6.1170    -2.0150     3.2090 hn         1 BAA       0.198500
     31 H411        10.3190    -3.0800     5.2380 hc         1 BAA       0.020700
     32 H412        11.3300    -1.7460     5.8100 hc         1 BAA       0.020700
     33 H413         9.6690    -1.9110     6.3950 hc         1 BAA       0.020700
     34 H421        10.6500    -0.5120     2.5110 hc         1 BAA       0.020700
     35 H422        11.7690    -1.4540     3.5060 hc         1 BAA       0.020700
     36 H423        10.4530    -2.2650     2.6460 hc         1 BAA       0.020700
     37 H431         9.8670     0.9300     3.9270 hc         1 BAA       0.020700
     38 H432        10.7320     0.4910     5.4070 hc         1 BAA       0.020700
     39 H433         8.9630     0.5200     5.3910 hc         1 BAA       0.020700
     40 H33         -0.3340     0.3030    -0.8940 hn         1 BAA       0.252133
@<TRIPOS>BOND
     1     1     2 1   
     2     1    19 1   
     3     1    20 1   
     4     1    40 1   
     5     2     3 2   
     6     2     4 1   
     7     4     5 1   
     8     4     6 1   
     9     4    21 1   
    10     5    22 1   
    11     5    23 1   
    12     5    24 1   
    13     6     7 1   
    14     6    25 1   
    15     7     8 2   
    16     7     9 1   
    17     9    10 1   
    18     9    11 1   
    19     9    26 1   
    20    10    27 1   
    21    10    28 1   
    22    10    29 1   
    23    11    12 1   
    24    11    30 1   
    25    12    13 2   
    26    12    14 1   
    27    14    15 1   
    28    15    16 1   
    29    15    17 1   
    30    15    18 1   
    31    16    31 1   
    32    16    32 1   
    33    16    33 1   
    34    17    34 1   
    35    17    35 1   
    36    17    36 1   
    37    18    37 1   
    38    18    38 1   
    39    18    39 1   
@<TRIPOS>SUBSTRUCTURE
     1 BAA         1 TEMP              0 ****  ****    0 ROOT
