@<TRIPOS>MOLECULE
BAB
   46    49     1     0     0
SMALL
bcc


@<TRIPOS>ATOM
      1 C1           0.0000     0.0000     0.0000 ca         1 BAB      -0.226900
      2 C2           1.3960     0.0000     0.0000 ca         1 BAB      -0.058000
      3 C3           2.1180     0.0000     1.2000 ca         1 BAB       0.053000
      4 C4           1.4040     0.0000     2.4110 ca         1 BAB       0.126400
      5 C5           0.0130    -0.0000     2.3790 ca         1 BAB      -0.251200
      6 C6          -0.7260     0.0000     1.1950 ca         1 BAB       0.017000
      7 C7          -0.7160     0.0020    -1.2670 ce         1 BAB       0.059800
      8 C8           0.7830    -0.0010     4.4190 cc         1 BAB       0.222800
      9 C9           0.7240     0.0010     5.9280 c3         1 BAB      -0.067000
     10 N1          -0.2180     0.5800    -2.4190 nv         1 BAB       0.387900
     11 N2          -1.9600    -0.5750    -1.4360 nz         1 BAB       0.127400
     12 N3           1.8640    -0.0010     3.7090 nd         1 BAB      -0.430100
     13 N4          -0.3600    -0.0010     3.6990 na         1 BAB       0.271700
     14 C1'          1.3570    -5.5350     8.2230 ca         1 BAB      -0.193900
     15 C2'         -0.0520    -5.5490     8.1480 ca         1 BAB      -0.020000
     16 C3'         -0.7610    -4.4460     7.6630 ca         1 BAB       0.003000
     17 C4'         -0.0270    -3.3540     7.2660 ca         1 BAB      -0.158200
     18 C5'          1.3860    -3.3390     7.3420 ca         1 BAB      -0.254200
     19 C6'          2.0930    -4.4190     7.8170 ca         1 BAB       0.022000
     20 C7'          2.0550    -6.7060     8.7330 ce         1 BAB       0.058800
     21 C8'          0.7030    -1.3610     6.5090 cc         1 BAB       0.002800
     22 N1'          1.5120    -7.5660     9.6690 nv         1 BAB       0.449900
     23 N2'          3.3270    -7.0670     8.3290 nz         1 BAB       0.125400
     24 N3'         -0.4350    -2.1190     6.7470 na         1 BAB       0.354800
     25 N4'          1.8240    -2.0970     6.8680 na         1 BAB       0.415700
     26 H2           1.9300    -0.0000    -0.9430 ha         1 BAB       0.134000
     27 H3           3.2010    -0.0000     1.1960 ha         1 BAB       0.169000
     28 H6          -1.8090     0.0000     1.2020 ha         1 BAB       0.116000
     29 H91          1.5900     0.5280     6.3090 hc         1 BAB       0.094700
     30 H92         -0.1700     0.5270     6.2410 hc         1 BAB       0.094700
     31 HN21        -2.0590    -1.3470    -0.8070 hn         1 BAB       0.263133
     32 HN22        -2.0520    -0.9000    -2.3790 hn         1 BAB       0.263133
     33 HN4         -1.2770     0.1890     4.0510 hn         1 BAB       0.160700
     34 H2'         -0.8000    -6.3140     8.3140 ha         1 BAB       0.172000
     35 H3'         -1.8420    -4.4830     7.6080 ha         1 BAB       0.178000
     36 H6'          3.1440    -4.1680     7.8990 ha         1 BAB       0.152000
     37 H2'1         3.4920    -6.7280     7.4030 hn         1 BAB       0.270133
     38 H2'2         4.0010    -6.6720     8.9550 hn         1 BAB       0.270133
     39 HN4'         2.7760    -1.8190     6.7400 hn         1 BAB       0.194700
     40 HN1          0.5940    -7.3980    10.0310 hn         1 BAB       0.175700
     41 HN2          2.0370    -8.3570     9.9850 hn         1 BAB       0.175700
     42 HN3         -1.3810    -1.8090     6.6400 hn         1 BAB       0.191700
     43 HN5          0.6780     1.0270    -2.4090 hn         1 BAB       0.174200
     44 HN6         -0.7530     0.5530    -3.2650 hn         1 BAB       0.174200
     45 H23         -2.6710     0.1040    -1.2470 hn         1 BAB       0.263133
     46 H2'3         3.4080    -8.0650     8.3350 hn         1 BAB       0.270133
@<TRIPOS>BOND
     1     1     2 ar  
     2     1     6 ar  
     3     1     7 1   
     4     2     3 ar  
     5     2    26 1   
     6     3     4 ar  
     7     3    27 1   
     8     4     5 ar  
     9     4    12 1   
    10     5     6 ar  
    11     5    13 1   
    12     6    28 1   
    13     7    10 2   
    14     7    11 1   
    15     8     9 1   
    16     8    12 2   
    17     8    13 1   
    18     9    21 1   
    19     9    29 1   
    20     9    30 1   
    21    10    43 1   
    22    10    44 1   
    23    11    31 1   
    24    11    32 1   
    25    11    45 1   
    26    13    33 1   
    27    14    15 ar  
    28    14    19 ar  
    29    14    20 1   
    30    15    16 ar  
    31    15    34 1   
    32    16    17 ar  
    33    16    35 1   
    34    17    18 ar  
    35    17    24 1   
    36    18    19 ar  
    37    18    25 1   
    38    19    36 1   
    39    20    22 2   
    40    20    23 1   
    41    21    24 2   
    42    21    25 1   
    43    22    40 1   
    44    22    41 1   
    45    23    37 1   
    46    23    38 1   
    47    23    46 1   
    48    24    42 1   
    49    25    39 1   
@<TRIPOS>SUBSTRUCTURE
     1 BAB         1 TEMP              0 ****  ****    0 ROOT
