@<TRIPOS>MOLECULE
molecule
   46    49     1     0     0
SMALL
bcc


@<TRIPOS>ATOM
      1 C1           0.0000     0.0000     0.0000 ca         1 BAB      -0.230900
      2 C2           1.3960     0.0000     0.0000 ca         1 BAB      -0.075000
      3 C3           2.1180     0.0000     1.2000 ca         1 BAB      -0.001000
      4 C4           1.4040     0.0000     2.4110 ca         1 BAB       0.159400
      5 C5           0.0130    -0.0000     2.3790 ca         1 BAB      -0.069200
      6 C6          -0.7260     0.0000     1.1950 ca         1 BAB      -0.046000
      7 C7          -0.7160     0.0020    -1.2670 ce         1 BAB       0.525800
      8 C8           0.7830    -0.0010     4.4190 cc         1 BAB       0.437800
      9 C9           0.7240     0.0010     5.9280 c3         1 BAB      -0.156000
     10 N1          -0.2180     0.5800    -2.4190 nv         1 BAB      -0.325100
     11 N2          -1.9600    -0.5750    -1.4360 nz         1 BAB      -0.805600
     12 N3           1.8640    -0.0010     3.7090 nd         1 BAB      -0.502100
     13 N4          -0.3600    -0.0010     3.6990 na         1 BAB      -0.256300
     14 C1'          1.3570    -5.5350     8.2230 ca         1 BAB      -0.208900
     15 C2'         -0.0520    -5.5490     8.1480 ca         1 BAB      -0.034000
     16 C3'         -0.7610    -4.4460     7.6630 ca         1 BAB      -0.061000
     17 C4'         -0.0270    -3.3540     7.2660 ca         1 BAB       0.026800
     18 C5'          1.3860    -3.3390     7.3420 ca         1 BAB      -0.068200
     19 C6'          2.0930    -4.4190     7.8170 ca         1 BAB      -0.041000
     20 C7'          2.0550    -6.7060     8.7330 ce         1 BAB       0.536800
     21 C8'          0.7030    -1.3610     6.5090 cc         1 BAB       0.413800
     22 N1'          1.5120    -7.5660     9.6690 nv         1 BAB      -0.295100
     23 N2'          3.3270    -7.0670     8.3290 nz         1 BAB      -0.806600
     24 N3'         -0.4350    -2.1190     6.7470 na         1 BAB      -0.222200
     25 N4'          1.8240    -2.0970     6.8680 na         1 BAB      -0.184300
     26 H2           1.9300    -0.0000    -0.9430 ha         1 BAB       0.182000
     27 H3           3.2010    -0.0000     1.1960 ha         1 BAB       0.223000
     28 H6          -1.8090     0.0000     1.2020 ha         1 BAB       0.157000
     29 H91          1.5900     0.5280     6.3090 hc         1 BAB       0.156700
     30 H92         -0.1700     0.5270     6.2410 hc         1 BAB       0.156700
     31 HN21        -2.0620    -0.8750    -2.3860 hn         1 BAB       0.514133
     32 HN22        -2.0480    -1.3640    -0.8260 hn         1 BAB       0.514133
     33 HN4         -1.2770     0.1870     4.0510 hn         1 BAB       0.340700
     34 H2'         -0.8050    -6.3120     8.3020 ha         1 BAB       0.224000
     35 H3'         -1.8430    -4.4520     7.6110 ha         1 BAB       0.228000
     36 H6'          3.1320    -4.1340     7.9310 ha         1 BAB       0.200000
     37 H2'1         3.4780    -6.7610     7.3890 hn         1 BAB       0.521467
     38 H2'2         4.0020    -6.6400     8.9320 hn         1 BAB       0.521467
     39 HN4'         2.7680    -1.7670     6.8710 hn         1 BAB       0.395700
     40 HN1          2.0370    -8.3570     9.9860 hn         1 BAB       0.385200
     41 HN2          0.5950    -7.3980    10.0310 hn         1 BAB       0.385200
     42 HN3         -1.3810    -1.8130     6.6310 hn         1 BAB       0.389700
     43 HN5         -0.7530     0.5530    -3.2650 hn         1 BAB       0.378700
     44 HN6          0.6780     1.0270    -2.4090 hn         1 BAB       0.378700
     45 H23         -2.6710     0.0960    -1.2200 hn         1 BAB       0.514133
     46 H2'3         3.4200    -8.0630     8.3710 hn         1 BAB       0.521467
@<TRIPOS>BOND
     1     1     2 ar
     2     1     6 ar
     3     1     7 1
     4     2     3 ar
     5     2    26 1
     6     3     4 ar
     7     3    27 1
     8     4     5 ar
     9     4    12 1
    10     5     6 ar
    11     5    13 1
    12     6    28 1
    13     7    10 2
    14     7    11 1
    15     8     9 1
    16     8    12 2
    17     8    13 1
    18     9    21 1
    19     9    29 1
    20     9    30 1
    21    11    31 1
    22    11    32 1
    23    13    33 1
    24    14    15 ar
    25    14    19 ar
    26    14    20 1
    27    15    16 ar
    28    15    34 1
    29    16    17 ar
    30    16    35 1
    31    17    18 ar
    32    17    24 1
    33    18    19 ar
    34    18    25 1
    35    19    36 1
    36    20    22 2
    37    20    23 1
    38    21    24 2
    39    21    25 1
    40    23    37 1
    41    23    38 1
    42    25    39 1
    43    40    22 1
    44    42    24 1
    45    43    10 1
    46    44    10 1
    47    41    22 1
    48    45    11 1
    49    46    23 1
@<TRIPOS>SUBSTRUCTURE
     1 BAB         1 TEMP              0 ****  ****    0 ROOT
