@<TRIPOS>MOLECULE
BAC
   19    19     1     0     0
SMALL
bcc


@<TRIPOS>ATOM
      1 C1           0.0000     0.0000     0.0000 c          1 BAC       0.614900
      2 O1           1.2120     0.0000     0.0000 o          1 BAC      -0.650100
      3 N2          -0.6740     0.0000     1.1670 ns         1 BAC      -0.226900
      4 C3           0.0580    -0.0010     2.4360 c3         1 BAC       0.110300
      5 C4          -0.9220    -0.0010     3.5800 ca         1 BAC      -0.123300
      6 C5          -1.3730    -1.1980     4.1050 ca         1 BAC      -0.079000
      7 C6          -2.2710    -1.1980     5.1550 ca         1 BAC      -0.086000
      8 C7          -2.7190    -0.0010     5.6810 ca         1 BAC       0.204900
      9 I7          -4.0790    -0.0010     7.2740 i          1 BAC      -0.285900
     10 C8          -2.2730     1.1970     5.1530 ca         1 BAC      -0.086000
     11 C9          -1.3700     1.1960     4.1060 ca         1 BAC      -0.079000
     12 H1          -0.5420     0.0000    -0.9380 h5         1 BAC      -0.019800
     13 HN2         -1.6750     0.0010     1.1670 hn         1 BAC       0.179500
     14 H31          0.6810     0.8840     2.4940 h1         1 BAC       0.030700
     15 H32          0.6800    -0.8860     2.4930 h1         1 BAC       0.030700
     16 H5          -1.0210    -2.1360     3.6920 ha         1 BAC       0.113000
     17 H6          -2.6240    -2.1360     5.5670 ha         1 BAC       0.120000
     18 H8          -2.6240     2.1350     5.5650 ha         1 BAC       0.120000
     19 H9          -1.0210     2.1340     3.6920 ha         1 BAC       0.113000
@<TRIPOS>BOND
     1     1     2 2   
     2     1     3 1   
     3     1    12 1   
     4     3     4 1   
     5     3    13 1   
     6     4     5 1   
     7     4    14 1   
     8     4    15 1   
     9     5     6 ar  
    10     5    11 ar  
    11     6     7 ar  
    12     6    16 1   
    13     7     8 ar  
    14     7    17 1   
    15     8     9 1   
    16     8    10 ar  
    17    10    11 ar  
    18    10    18 1   
    19    11    19 1   
@<TRIPOS>SUBSTRUCTURE
     1 BAC         1 TEMP              0 ****  ****    0 ROOT
