@<TRIPOS>MOLECULE
molecule
   21    20     1     0     0
SMALL
bcc


@<TRIPOS>ATOM
      1 CAB          0.0000     0.0000     0.0000 c3         1 BAE      -0.077433
      2 CAH          1.5290     0.0000     0.0000 c3         1 BAE      -0.144000
      3 CAC          2.0390     0.0000     1.4430 c3         1 BAE      -0.077433
      4 CAD          2.0390    -1.2510    -0.7190 c3         1 BAE      -0.077433
      5 CAG          2.0320     1.2290    -0.7110 c          1 BAE       0.665100
      6 OAE          1.2440     2.0270    -1.1730 o          1 BAE      -0.606100
      7 N            3.3580     1.4420    -0.8340 ns         1 BAE      -0.589900
      8 CAA          3.8460     2.6370    -1.5260 c3         1 BAE       0.102300
      9 H1          -0.3610     0.8850     0.5090 hc         1 BAE       0.040922
     10 H2          -0.3610    -0.8840     0.5120 hc         1 BAE       0.040922
     11 H3          -0.3610    -0.0020    -1.0210 hc         1 BAE       0.040922
     12 H4           1.8350     0.9620     1.8980 hc         1 BAE       0.040922
     13 H5           3.1070    -0.1830     1.4490 hc         1 BAE       0.040922
     14 H6           1.5360    -0.7790     2.0040 hc         1 BAE       0.040922
     15 H7           1.5290    -2.1240    -0.3310 hc         1 BAE       0.040922
     16 H8           3.1050    -1.3530    -0.5550 hc         1 BAE       0.040922
     17 H9           1.8450    -1.1620    -1.7810 hc         1 BAE       0.040922
     18 H10          4.0080     0.7690    -0.4780 hn         1 BAE       0.312500
     19 H11          3.4820     3.5220    -1.0180 h1         1 BAE       0.040700
     20 H12          3.4870     2.6350    -2.5480 h1         1 BAE       0.040700
     21 H13          4.9290     2.6390    -1.5230 h1         1 BAE       0.040700
@<TRIPOS>BOND
     1     8     7 1
     2     7     5 1
     3     5     6 2
     4     5     2 1
     5     1     2 1
     6     4     2 1
     7     2     3 1
     8     1     9 1
     9     1    10 1
    10     1    11 1
    11     3    12 1
    12     3    13 1
    13     3    14 1
    14     4    15 1
    15     4    16 1
    16     4    17 1
    17     7    18 1
    18     8    19 1
    19     8    20 1
    20     8    21 1
@<TRIPOS>SUBSTRUCTURE
     1 BAE         1 TEMP              0 ****  ****    0 ROOT
