@<TRIPOS>MOLECULE
molecule
   39    38     1     0     0
SMALL
bcc


@<TRIPOS>ATOM
      1 N3           0.0000     0.0000     0.0000 ns         1 BAF      -0.611900
      2 C1          -0.6730    -0.5830    -1.0110 c          1 BAF       0.645900
      3 O1          -0.0670    -1.1070    -1.9210 o          1 BAF      -0.568100
      4 CA1          1.4640     0.0000     0.0000 c3         1 BAF       0.281100
      5 CB1          1.9730     0.0000     1.4430 c3         1 BAF      -0.116100
      6 N1           1.9530     1.1970    -0.6900 ns         1 BAF      -0.599900
      7 C2           2.1770     1.1640    -2.0180 c          1 BAF       0.640100
      8 O2           1.9760     0.1440    -2.6410 o          1 BAF      -0.560100
      9 CA2          2.6800     2.3940    -2.7280 c3         1 BAF       0.059700
     10 CB2          1.6730     3.5320    -2.5520 c3         1 BAF      -0.112100
     11 N2           2.8440     2.1030    -4.1530 ns         1 BAF      -0.556900
     12 C3           3.7870     2.7460    -4.8690 c          1 BAF       0.762100
     13 O3           4.5020     3.5690    -4.3310 o          1 BAF      -0.629000
     14 O4           3.9370     2.4790    -6.1790 os         1 BAF      -0.442900
     15 C4           4.9530     3.1730    -6.9500 c3         1 BAF       0.186800
     16 C41          4.9140     2.6880    -8.4010 c3         1 BAF      -0.106100
     17 C42          4.6860     4.6780    -6.9090 c3         1 BAF      -0.106100
     18 C43          6.3320     2.8840    -6.3540 c3         1 BAF      -0.106100
     19 HN3         -0.5000     0.4050     0.7660 hn         1 BAF       0.307500
     20 H1          -1.7560    -0.6160    -0.9920 h5         1 BAF       0.020200
     21 HA1          1.8250    -0.8840    -0.5110 h2         1 BAF       0.118700
     22 HB11         2.9370     0.4930     1.4860 hc         1 BAF       0.049033
     23 HB12         2.0740    -1.0210     1.7900 hc         1 BAF       0.049033
     24 HB13         1.2690     0.5280     2.0740 hc         1 BAF       0.049033
     25 HN1          2.1630     2.0240    -0.1670 hn         1 BAF       0.310500
     26 HA2          3.6340     2.6880    -2.3070 h1         1 BAF       0.095700
     27 HB21         2.1330     4.3390    -1.9940 hc         1 BAF       0.048700
     28 HB22         1.3640     3.8950    -3.5250 hc         1 BAF       0.048700
     29 HB23         0.8070     3.1670    -2.0110 hc         1 BAF       0.048700
     30 HN2          2.2410     1.4420    -4.6010 hn         1 BAF       0.346500
     31 H411         3.9370     2.8920    -8.8230 hc         1 BAF       0.049478
     32 H412         5.6710     3.2060    -8.9760 hc         1 BAF       0.049478
     33 H413         5.1040     1.6220    -8.4300 hc         1 BAF       0.049478
     34 H421         5.0700     5.0880    -5.9830 hc         1 BAF       0.049478
     35 H422         3.6190     4.8570    -6.9680 hc         1 BAF       0.049478
     36 H423         5.1790     5.1560    -7.7470 hc         1 BAF       0.049478
     37 H431         6.3790     1.8480    -6.0390 hc         1 BAF       0.049478
     38 H432         7.0940     3.0690    -7.1010 hc         1 BAF       0.049478
     39 H433         6.4990     3.5290    -5.5000 hc         1 BAF       0.049478
@<TRIPOS>BOND
     1     1     2 1
     2     1     4 1
     3     1    19 1
     4     2     3 2
     5     2    20 1
     6     4     5 1
     7     4     6 1
     8     4    21 1
     9     5    22 1
    10     5    23 1
    11     5    24 1
    12     6     7 1
    13     6    25 1
    14     7     8 2
    15     7     9 1
    16     9    10 1
    17     9    11 1
    18     9    26 1
    19    10    27 1
    20    10    28 1
    21    10    29 1
    22    11    12 1
    23    11    30 1
    24    12    13 2
    25    12    14 1
    26    14    15 1
    27    15    16 1
    28    15    17 1
    29    15    18 1
    30    16    31 1
    31    16    32 1
    32    16    33 1
    33    17    34 1
    34    17    35 1
    35    17    36 1
    36    18    37 1
    37    18    38 1
    38    18    39 1
@<TRIPOS>SUBSTRUCTURE
     1 BAF         1 TEMP              0 ****  ****    0 ROOT
