@<TRIPOS>MOLECULE
BAG
   41    41     1     0     0
SMALL
bcc


@<TRIPOS>ATOM
      1 O9           0.0000     0.0000     0.0000 o          1 BAG      -0.587100
      2 C8           1.2170     0.0000     0.0000 c          1 BAG       0.617700
      3 C10          1.9540     0.0000     1.2810 ca         1 BAG      -0.206600
      4 C11          3.3500    -0.0060     1.2860 ca         1 BAG      -0.050500
      5 C13          4.0320    -0.0010     2.4850 ca         1 BAG      -0.092000
      6 C15          3.3360    -0.0030     3.6800 ca         1 BAG      -0.031000
      7 C14          1.9530    -0.0030     3.6830 ca         1 BAG      -0.092000
      8 C12          1.2590    -0.0020     2.4910 ca         1 BAG      -0.050500
      9 N16          1.8910     0.0010    -1.1660 ns         1 BAG      -0.172100
     10 C17          1.1900     0.0040    -2.3830 c2         1 BAG       0.053400
     11 C1           1.3670     0.9990    -3.2520 c2         1 BAG      -0.221900
     12 N18          2.3320     1.9760    -3.0060 nz         1 BAG       0.252600
     13 O2           0.6100     1.0610    -4.3780 oh         1 BAG      -0.417100
     14 C3           0.2370    -1.1170    -2.7060 c3         1 BAG       0.000800
     15 C4           0.9980    -2.2540    -3.3880 c3         1 BAG      -0.021400
     16 CD           0.0310    -3.3910    -3.7170 c3         1 BAG       0.172800
     17 NE           0.7600    -4.4800    -4.3710 nu         1 BAG      -0.502200
     18 CZ           0.0930    -5.6180    -4.7610 c2         1 BAG       0.241100
     19 NH2          0.7780    -6.6400    -5.3750 nz         1 BAG       0.206400
     20 NH1         -1.1880    -5.7270    -4.5480 n2         1 BAG      -0.591100
     21 H11          3.8960    -0.0050     0.3510 ha         1 BAG       0.104000
     22 H13          5.1150    -0.0040     2.4900 ha         1 BAG       0.124500
     23 H15          3.8770    -0.0010     4.6190 ha         1 BAG       0.124000
     24 H14          1.4140    -0.0040     4.6230 ha         1 BAG       0.124500
     25 H12          0.1750    -0.0020     2.4940 ha         1 BAG       0.104000
     26 H16          2.8910    -0.0430    -1.1650 hn         1 BAG       0.197500
     27 H181         3.2240     1.5400    -2.8820 hn         1 BAG       0.217467
     28 H182         2.0900     2.4820    -2.1770 hn         1 BAG       0.217467
     29 HO2          0.2480     1.9270    -4.4660 ho         1 BAG       0.424000
     30 H31         -0.2140    -1.4820    -1.7910 hc         1 BAG       0.070700
     31 H32         -0.5380    -0.7520    -3.3700 hc         1 BAG       0.070700
     32 H41          1.4500    -1.8880    -4.3020 hc         1 BAG       0.025200
     33 H42          1.7720    -2.6190    -2.7240 hc         1 BAG       0.025200
     34 HD1         -0.4210    -3.7570    -2.8030 h1         1 BAG       0.039200
     35 HD2         -0.7430    -3.0260    -4.3810 h1         1 BAG       0.039200
     36 HNE          1.7450    -4.3990    -4.5300 hn         1 BAG       0.306800
     37 HH21         0.3750    -6.8200    -6.2730 hn         1 BAG       0.225467
     38 HH22         0.7200    -7.4660    -4.8120 hn         1 BAG       0.225467
     39 HH1         -1.6880    -4.9840    -4.1020 hn         1 BAG       0.382400
     40 H183         2.3910     2.5920    -3.7920 hn         1 BAG       0.217467
     41 HH23         1.7350    -6.3730    -5.4990 hn         1 BAG       0.225467
@<TRIPOS>BOND
     1     1     2 2   
     2     2     3 1   
     3     2     9 1   
     4     3     4 ar  
     5     3     8 ar  
     6     4     5 ar  
     7     4    21 1   
     8     5     6 ar  
     9     5    22 1   
    10     6     7 ar  
    11     6    23 1   
    12     7     8 ar  
    13     7    24 1   
    14     8    25 1   
    15     9    10 1   
    16     9    26 1   
    17    10    11 2   
    18    10    14 1   
    19    11    12 1   
    20    11    13 1   
    21    12    27 1   
    22    12    28 1   
    23    12    40 1   
    24    13    29 1   
    25    14    15 1   
    26    14    30 1   
    27    14    31 1   
    28    15    16 1   
    29    15    32 1   
    30    15    33 1   
    31    16    17 1   
    32    16    34 1   
    33    16    35 1   
    34    17    18 1   
    35    17    36 1   
    36    18    19 1   
    37    18    20 2   
    38    19    37 1   
    39    19    38 1   
    40    19    41 1   
    41    20    39 1   
@<TRIPOS>SUBSTRUCTURE
     1 BAG         1 TEMP              0 ****  ****    0 ROOT
