@<TRIPOS>MOLECULE
molecule
   41    41     1     0     0
SMALL
bcc


@<TRIPOS>ATOM
      1 O9           0.0000     0.0000     0.0000 o          1 BAG      -0.556100
      2 C8           1.2170     0.0000     0.0000 c          1 BAG       0.683700
      3 C10          1.9540     0.0000     1.2810 ca         1 BAG      -0.183600
      4 C11          3.3500    -0.0060     1.2860 ca         1 BAG      -0.082000
      5 C13          4.0320    -0.0010     2.4850 ca         1 BAG      -0.122000
      6 C15          3.3360    -0.0030     3.6800 ca         1 BAG      -0.069000
      7 C14          1.9530    -0.0030     3.6830 ca         1 BAG      -0.122000
      8 C12          1.2590    -0.0020     2.4910 ca         1 BAG      -0.082000
      9 N16          1.8910     0.0010    -1.1660 ns         1 BAG      -0.556100
     10 C17          1.1900     0.0040    -2.3830 c2         1 BAG       0.151400
     11 C1           1.3670     0.9990    -3.2520 c2         1 BAG      -0.004900
     12 N18          2.3320     1.9760    -3.0060 nz         1 BAG      -0.687400
     13 O2           0.6100     1.0610    -4.3780 oh         1 BAG      -0.447100
     14 C3           0.2370    -1.1170    -2.7060 c3         1 BAG      -0.046200
     15 C4           0.9980    -2.2540    -3.3880 c3         1 BAG      -0.101400
     16 CD           0.0310    -3.3910    -3.7170 c3         1 BAG       0.254800
     17 NE           0.7600    -4.4800    -4.3710 nu         1 BAG      -0.867200
     18 CZ           0.0930    -5.6180    -4.7610 c2         1 BAG       0.689100
     19 NH2          0.7780    -6.6400    -5.3750 nz         1 BAG      -0.806600
     20 NH1         -1.1880    -5.7270    -4.5480 n2         1 BAG      -0.766100
     21 H11          3.8960    -0.0050     0.3510 ha         1 BAG       0.132500
     22 H13          5.1150    -0.0040     2.4900 ha         1 BAG       0.157000
     23 H15          3.8770    -0.0010     4.6190 ha         1 BAG       0.160000
     24 H14          1.4140    -0.0040     4.6230 ha         1 BAG       0.157000
     25 H12          0.1750    -0.0020     2.4940 ha         1 BAG       0.132500
     26 H16          2.8910    -0.0230    -1.1650 hn         1 BAG       0.332500
     27 H181         3.2250     1.5400    -2.8850 hn         1 BAG       0.464133
     28 H182         2.3710     2.6090    -3.7800 hn         1 BAG       0.464133
     29 HO2          0.2470     1.9270    -4.4650 ho         1 BAG       0.447000
     30 H31         -0.5380    -0.7520    -3.3700 hc         1 BAG       0.106200
     31 H32         -0.2140    -1.4820    -1.7910 hc         1 BAG       0.106200
     32 H41          1.4500    -1.8880    -4.3020 hc         1 BAG       0.055700
     33 H42          1.7720    -2.6190    -2.7240 hc         1 BAG       0.055700
     34 HD1         -0.4210    -3.7570    -2.8030 h1         1 BAG       0.082700
     35 HD2         -0.7430    -3.0260    -4.3810 h1         1 BAG       0.082700
     36 HNE          1.7500    -4.4130    -4.4990 hn         1 BAG       0.452800
     37 HH21         1.4830    -6.2570    -5.9730 hn         1 BAG       0.471800
     38 HH22         1.2080    -7.2180    -4.6800 hn         1 BAG       0.471800
     39 HH1         -1.6740    -6.5550    -4.8320 hn         1 BAG       0.450400
     40 H183         2.0930     2.4780    -2.1730 hn         1 BAG       0.464133
     41 HH23         0.1440    -7.1830    -5.9260 hn         1 BAG       0.471800
@<TRIPOS>BOND
     1     1     2 2
     2     2     3 1
     3     2     9 1
     4     3     4 ar
     5     3     8 ar
     6     4     5 ar
     7     4    21 1
     8     5     6 ar
     9     5    22 1
    10     6     7 ar
    11     6    23 1
    12     7     8 ar
    13     7    24 1
    14     8    25 1
    15     9    10 1
    16     9    26 1
    17    10    11 2
    18    10    14 1
    19    11    12 1
    20    11    13 1
    21    12    27 1
    22    12    28 1
    23    13    29 1
    24    14    15 1
    25    14    30 1
    26    14    31 1
    27    15    16 1
    28    15    32 1
    29    15    33 1
    30    16    17 1
    31    16    34 1
    32    16    35 1
    33    17    18 1
    34    17    36 1
    35    18    19 1
    36    18    20 2
    37    19    37 1
    38    19    38 1
    39    20    39 1
    40    40    12 1
    41    41    19 1
@<TRIPOS>SUBSTRUCTURE
     1 BAG         1 TEMP              0 ****  ****    0 ROOT
