@<TRIPOS>MOLECULE
BAH
   47    50     1     0     0
SMALL
bcc


@<TRIPOS>ATOM
      1 C1           0.0000     0.0000     0.0000 ca         1 BAH      -0.254400
      2 C2           1.4010     0.0000     0.0000 ca         1 BAH      -0.093000
      3 C3           2.0930     0.0000     1.1730 ca         1 BAH       0.039500
      4 C4           1.4060     0.0000     2.3930 ca         1 BAH       0.155400
      5 C5          -0.0010     0.0000     2.4000 ca         1 BAH      -0.303200
      6 C6          -0.7000     0.0050     1.2050 ca         1 BAH       0.072500
      7 C7          -0.7370     0.0000    -1.2800 ce         1 BAH       0.011800
      8 C8           0.7650     0.0000     4.4690 cc         1 BAH       0.226300
      9 C9           0.8170    -0.0000     5.9750 c3         1 BAH       0.380000
     10 N1          -2.0690    -0.0000    -1.2820 nz         1 BAH       0.163900
     11 N2          -0.0690     0.0000    -2.4330 nv         1 BAH       0.357400
     12 N3           1.8070     0.0010     3.6870 nd         1 BAH      -0.436100
     13 N4          -0.3740     0.0000     3.7300 na         1 BAH       0.362700
     14 C1'          6.3560    -0.0020     8.3630 ca         1 BAH      -0.254400
     15 C2'          6.7310    -0.0010     7.0140 ca         1 BAH      -0.093000
     16 C3'          5.7860    -0.0000     6.0330 ca         1 BAH       0.039500
     17 C4'          4.4270    -0.0000     6.3680 ca         1 BAH       0.155400
     18 C5'          4.0430    -0.0020     7.7220 ca         1 BAH      -0.303200
     19 C6'          5.0070    -0.0020     8.7150 ca         1 BAH       0.072500
     20 C7'          7.3920    -0.0020     9.4170 ce         1 BAH       0.011800
     21 C8'          2.2540    -0.0000     6.4290 cc         1 BAH       0.226300
     22 N1'          8.5720    -0.5800     9.1900 nz         1 BAH       0.163900
     23 N2'          7.1470     0.5740    10.5920 nv         1 BAH       0.357400
     24 N3'          3.2870    -0.0060     5.6350 nd         1 BAH      -0.436100
     25 N4'          2.6610    -0.0010     7.7250 na         1 BAH       0.362700
     26 O91          0.1600     1.1660     6.4760 oh         1 BAH      -0.575300
     27 O92          0.1610    -1.1680     6.4740 oh         1 BAH      -0.575300
     28 HC2          1.9380    -0.0040    -0.9410 ha         1 BAH       0.119000
     29 HC3          3.1770     0.0000     1.1630 ha         1 BAH       0.153000
     30 HC6         -1.7830     0.0050     1.2070 ha         1 BAH       0.104500
     31 HN11        -2.4040    -0.8160    -0.8090 hn         1 BAH       0.257133
     32 HN12        -2.4040     0.8180    -0.8130 hn         1 BAH       0.257133
     33 HN21         0.9310     0.0000    -2.4330 hn         1 BAH       0.164450
     34 HN22        -0.5690     0.0010    -3.3010 hn         1 BAH       0.164450
     35 HN4         -1.3030    -0.1300     4.0810 hn         1 BAH       0.162700
     36 HC2'         7.7810    -0.0010     6.7480 ha         1 BAH       0.119000
     37 HC3'         6.0860     0.0000     4.9920 ha         1 BAH       0.153000
     38 HC6'         4.7160    -0.0020     9.7580 ha         1 BAH       0.104500
     39 H1'1         9.0040    -0.8100    10.0630 hn         1 BAH       0.257133
     40 H1'2         8.4380    -1.4140     8.6550 hn         1 BAH       0.257133
     41 H2'1         6.2620     1.0080    10.7630 hn         1 BAH       0.164450
     42 H2'2         7.8490     0.5730    11.3060 hn         1 BAH       0.164450
     43 HN4'         2.0750    -0.1260     8.5260 hn         1 BAH       0.162700
     44 H91          0.5920     1.9360     6.1450 ho         1 BAH       0.443000
     45 H92         -0.5620    -0.9120     7.0220 ho         1 BAH       0.443000
     46 H13         -2.4020    -0.0060    -2.2260 hn         1 BAH       0.257133
     47 H1'3         9.1610     0.0520     8.6850 hn         1 BAH       0.257133
@<TRIPOS>BOND
     1     1     2 ar  
     2     1     6 ar  
     3     1     7 1   
     4     2     3 ar  
     5     2    28 1   
     6     3     4 ar  
     7     3    29 1   
     8     4     5 ar  
     9     4    12 1   
    10     5     6 ar  
    11     5    13 1   
    12     6    30 1   
    13     7    10 1   
    14     7    11 2   
    15     8     9 1   
    16     8    12 2   
    17     8    13 1   
    18     9    21 1   
    19     9    26 1   
    20     9    27 1   
    21    10    31 1   
    22    10    32 1   
    23    10    46 1   
    24    11    33 1   
    25    11    34 1   
    26    13    35 1   
    27    14    15 ar  
    28    14    19 ar  
    29    14    20 1   
    30    15    16 ar  
    31    15    36 1   
    32    16    17 ar  
    33    16    37 1   
    34    17    18 ar  
    35    17    24 1   
    36    18    19 ar  
    37    18    25 1   
    38    19    38 1   
    39    20    22 1   
    40    20    23 2   
    41    21    24 2   
    42    21    25 1   
    43    22    39 1   
    44    22    40 1   
    45    22    47 1   
    46    23    41 1   
    47    23    42 1   
    48    25    43 1   
    49    26    44 1   
    50    27    45 1   
@<TRIPOS>SUBSTRUCTURE
     1 BAH         1 TEMP              0 ****  ****    0 ROOT
