@<TRIPOS>MOLECULE
molecule
   37    40     1     0     0
SMALL
bcc


@<TRIPOS>ATOM
      1 C1           0.0000     0.0000     0.0000 ca         1 BAI      -0.239900
      2 C2           1.3970     0.0000     0.0000 ca         1 BAI      -0.130000
      3 C3           2.1220     0.0000     1.1970 ca         1 BAI      -0.094000
      4 C4           1.3820     0.0020     2.3790 ca         1 BAI      -0.048200
      5 C5          -0.0100     0.0020     2.4110 ca         1 BAI       0.070400
      6 C6          -0.7220     0.0010     1.2000 ca         1 BAI       0.040000
      7 C7          -0.7140    -0.0030    -1.2590 ce         1 BAI       0.560800
      8 C8           0.6120     0.0040     4.4530 cc         1 BAI       0.455800
      9 C9           0.6680     0.0040     5.9270 c3         1 BAI      -0.115000
     10 N1          -0.2070    -0.5750    -2.3650 nz         1 BAI      -0.801600
     11 N2          -1.8620     0.5450    -1.3560 n2         1 BAI      -0.697100
     12 N3           1.7520     0.0030     3.7000 na         1 BAI      -0.256300
     13 N4          -0.4690     0.0040     3.7080 nd         1 BAI      -0.527100
     14 C1'          0.3210    -5.4090     8.4110 ca         1 BAI      -0.150000
     15 C2'          1.7160    -5.3590     8.3370 ca         1 BAI      -0.101000
     16 C3'          2.3740    -4.2460     7.8030 ca         1 BAI      -0.142000
     17 C4'          1.5720    -3.1970     7.3540 ca         1 BAI      -0.068200
     18 C5'          0.1810    -3.2170     7.4160 ca         1 BAI       0.060400
     19 C6'         -0.4640    -4.3440     7.9540 ca         1 BAI      -0.060000
     20 C8'          0.6920    -1.3820     6.5580 cc         1 BAI       0.392800
     21 N3'          1.8710    -1.9840     6.7890 na         1 BAI      -0.270300
     22 N4'         -0.3480    -2.0540     6.9040 nd         1 BAI      -0.529100
     23 H2           1.9290    -0.0010    -0.9440 ha         1 BAI       0.111000
     24 H3           3.2050     0.0000     1.2050 ha         1 BAI       0.160000
     25 H6          -1.8050     0.0010     1.1950 ha         1 BAI       0.179000
     26 H91          1.5590     0.5360     6.2360 hc         1 BAI       0.090700
     27 H92         -0.1980     0.5360     6.3030 hc         1 BAI       0.090700
     28 HH11         0.3300    -1.3800    -2.1090 hn         1 BAI       0.464133
     29 HH12        -0.9550    -0.8520    -2.9700 hn         1 BAI       0.464133
     30 HH21        -2.3490     0.5380    -2.2300 hn         1 BAI       0.432400
     31 HN3          2.6880     0.0770     4.0480 hn         1 BAI       0.316700
     32 H3'          3.4560    -4.2870     7.7720 ha         1 BAI       0.141000
     33 H6'         -1.5430    -4.4140     8.0240 ha         1 BAI       0.152000
     34 HN3'         2.7680    -1.5410     6.7880 hn         1 BAI       0.300700
     35 H1'         -0.1620    -6.2840     8.8270 ha         1 BAI       0.142000
     36 H13          0.3880     0.0780    -2.8360 hn         1 BAI       0.464133
     37 H2'          2.2870    -6.2040     8.7020 ha         1 BAI       0.139000
@<TRIPOS>BOND
     1     1     2 ar
     2     1     6 ar
     3     1     7 1
     4     2     3 ar
     5     2    23 1
     6     3     4 ar
     7     3    24 1
     8     4     5 ar
     9     4    12 1
    10     5     6 ar
    11     5    13 1
    12     6    25 1
    13     7    10 1
    14     7    11 2
    15     8     9 1
    16     8    12 1
    17     8    13 2
    18     9    20 1
    19     9    26 1
    20     9    27 1
    21    10    28 1
    22    10    29 1
    23    11    30 1
    24    12    31 1
    25    14    15 ar
    26    14    19 ar
    27    14    35 1
    28    15    16 ar
    29    15    37 1
    30    16    17 ar
    31    16    32 1
    32    17    18 ar
    33    17    21 1
    34    18    19 ar
    35    18    22 1
    36    19    33 1
    37    20    21 1
    38    20    22 2
    39    21    34 1
    40    36    10 1
@<TRIPOS>SUBSTRUCTURE
     1 BAI         1 TEMP              0 ****  ****    0 ROOT
