@<TRIPOS>MOLECULE
BAI
   37    40     1     0     0
SMALL
bcc


@<TRIPOS>ATOM
      1 C1           0.0000     0.0000     0.0000 ca         1 BAI      -0.278900
      2 C2           1.3970     0.0000     0.0000 ca         1 BAI      -0.104000
      3 C3           2.1220     0.0000     1.1970 ca         1 BAI      -0.034000
      4 C4           1.3820     0.0020     2.3790 ca         1 BAI      -0.234200
      5 C5          -0.0100     0.0020     2.4110 ca         1 BAI       0.052400
      6 C6          -0.7220     0.0010     1.2000 ca         1 BAI       0.041000
      7 C7          -0.7140    -0.0030    -1.2590 ce         1 BAI       0.232800
      8 C8           0.6120     0.0040     4.4530 cc         1 BAI       0.254800
      9 C9           0.6680     0.0040     5.9270 c3         1 BAI      -0.046000
     10 N1          -0.2070    -0.5750    -2.3650 nz         1 BAI       0.191400
     11 N2          -1.8620     0.5450    -1.3560 n2         1 BAI      -0.514100
     12 N3           1.7520     0.0030     3.7000 na         1 BAI       0.270700
     13 N4          -0.4690     0.0040     3.7080 nd         1 BAI      -0.460100
     14 C1'          0.3210    -5.4090     8.4110 ca         1 BAI      -0.120000
     15 C2'          1.7160    -5.3590     8.3370 ca         1 BAI      -0.074000
     16 C3'          2.3740    -4.2460     7.8030 ca         1 BAI      -0.105000
     17 C4'          1.5720    -3.1970     7.3540 ca         1 BAI      -0.241200
     18 C5'          0.1810    -3.2170     7.4160 ca         1 BAI       0.037400
     19 C6'         -0.4640    -4.3440     7.9540 ca         1 BAI      -0.028000
     20 C8'          0.6920    -1.3820     6.5580 cc         1 BAI       0.187800
     21 N3'          1.8710    -1.9840     6.7890 na         1 BAI       0.237700
     22 N4'         -0.3480    -2.0540     6.9040 nd         1 BAI      -0.457100
     23 H2           1.9290    -0.0010    -0.9440 ha         1 BAI       0.088000
     24 H3           3.2050     0.0000     1.2050 ha         1 BAI       0.126000
     25 H6          -1.8050     0.0010     1.1950 ha         1 BAI       0.122000
     26 H91          1.5590     0.5360     6.2360 hc         1 BAI       0.044200
     27 H92         -0.1980     0.5360     6.3030 hc         1 BAI       0.044200
     28 HH11         0.1990    -1.4580    -2.1280 hn         1 BAI       0.219800
     29 HH12         0.4950     0.0200    -2.7580 hn         1 BAI       0.219800
     30 HH21        -2.2780     0.9830    -0.5570 hn         1 BAI       0.384400
     31 HN3          2.6880     0.0770     4.0480 hn         1 BAI       0.141700
     32 H3'          3.4560    -4.2870     7.7720 ha         1 BAI       0.114000
     33 H6'         -1.5430    -4.4140     8.0240 ha         1 BAI       0.118000
     34 HN3'         2.7680    -1.5410     6.7880 hn         1 BAI       0.127700
     35 H1'         -0.1620    -6.2840     8.8270 ha         1 BAI       0.111000
     36 H13         -0.9370    -0.7060    -3.0370 hn         1 BAI       0.219800
     37 H2'          2.2870    -6.2040     8.7020 ha         1 BAI       0.107000
@<TRIPOS>BOND
     1     1     2 ar  
     2     1     6 ar  
     3     1     7 1   
     4     2     3 ar  
     5     2    23 1   
     6     3     4 ar  
     7     3    24 1   
     8     4     5 ar  
     9     4    12 1   
    10     5     6 ar  
    11     5    13 1   
    12     6    25 1   
    13     7    10 1   
    14     7    11 2   
    15     8     9 1   
    16     8    12 1   
    17     8    13 2   
    18     9    20 1   
    19     9    26 1   
    20     9    27 1   
    21    10    28 1   
    22    10    29 1   
    23    10    36 1   
    24    11    30 1   
    25    12    31 1   
    26    14    15 ar  
    27    14    19 ar  
    28    14    35 1   
    29    15    16 ar  
    30    15    37 1   
    31    16    17 ar  
    32    16    32 1   
    33    17    18 ar  
    34    17    21 1   
    35    18    19 ar  
    36    18    22 1   
    37    19    33 1   
    38    20    21 1   
    39    20    22 2   
    40    21    34 1   
@<TRIPOS>SUBSTRUCTURE
     1 BAI         1 TEMP              0 ****  ****    0 ROOT
