@<TRIPOS>MOLECULE
molecule
   91    95     1     0     0
SMALL
bcc


@<TRIPOS>ATOM
      1 C19          0.0000     0.0000     0.0000 c3         1 BAJ       0.184100
      2 C1          -2.6350    -3.6700     0.5680 ca         1 BAJ      -0.088500
      3 C15         -1.9580    -1.4030    -0.2480 c3         1 BAJ       0.207100
      4 C2          -3.0660    -4.9630     0.3420 ca         1 BAJ      -0.169000
      5 C21          1.5070     0.0000     0.0000 ca         1 BAJ      -0.041300
      6 C23          2.1960     0.0000     1.1960 ca         1 BAJ      -0.107000
      7 C24          3.5890    -0.0000     1.1950 ca         1 BAJ      -0.084500
      8 C25          4.2800    -0.0010    -0.0160 ca         1 BAJ      -0.122000
      9 C26          3.5800    -0.0010    -1.2050 ca         1 BAJ      -0.085000
     10 C27          2.1970    -0.0060    -1.1990 ca         1 BAJ      -0.154300
     11 C3          -3.2850    -5.4030    -0.9530 ca         1 BAJ       0.134900
     12 C34          1.4400    -0.0120    -2.5020 c3         1 BAJ       0.673200
     13 C4          -3.0710    -4.5450    -2.0190 ca         1 BAJ      -0.169000
     14 C42          4.3350     0.0010     2.4780 cc         1 BAJ       0.396800
     15 C46          5.9060    -0.4020     4.0110 cd         1 BAJ      -0.057600
     16 C47          5.5550    -0.6440     2.7250 cc         1 BAJ      -0.318600
     17 C5          -2.6400    -3.2520    -1.7900 ca         1 BAJ      -0.088500
     18 C53          6.3740    -1.4790     1.7710 c3         1 BAJ       0.325100
     19 C55          7.7120    -2.0810     3.8290 c3         1 BAJ       0.244800
     20 C56          7.1640    -0.9180     4.6640 c3         1 BAJ      -0.041100
     21 C6          -2.4220    -2.8140    -0.4970 ca         1 BAJ      -0.101300
     22 C64          9.5570     0.1830     1.7450 c3         1 BAJ      -0.249300
     23 C72          4.2130    -0.1500     6.8380 c3         1 BAJ      -0.106400
     24 C74          4.1960     0.3670     8.2780 c3         1 BAJ       0.155800
     25 C78          4.2590    -1.8620     9.2220 c3         1 BAJ       0.159300
     26 C79          5.6240    -1.5990     9.8610 c3         1 BAJ      -0.123900
     27 C80          5.4230    -1.0090    11.2590 c3         1 BAJ      -0.056700
     28 C81          4.5950     0.2750    11.1480 c3         1 BAJ      -0.123900
     29 C82          3.2590    -0.0420    10.4720 c3         1 BAJ       0.159300
     30 C89          6.7850    -0.6880    11.8790 c3         1 BAJ      -0.066000
     31 C91          6.5820    -0.0980    13.2760 c3         1 BAJ      -0.083767
     32 C93          7.6120    -1.9710    11.9820 c3         1 BAJ      -0.083767
     33 C95          7.5200     0.3250    11.0000 c3         1 BAJ      -0.083767
     34 F36          0.6360     1.1300    -2.5780 f          1 BAJ      -0.218967
     35 F38          2.3460    -0.0170    -3.5680 f          1 BAJ      -0.218967
     36 F40          0.6360    -1.1550    -2.5670 f          1 BAJ      -0.218967
     37 N17         -0.4900    -1.3640    -0.2410 n7         1 BAJ      -0.803200
     38 N44          3.9710     0.6130     3.5880 nd         1 BAJ      -0.496800
     39 N45          4.9480     0.3660     4.5630 na         1 BAJ       0.081400
     40 N54          7.6840    -1.7110     2.4060 n3         1 BAJ      -0.821500
     41 N76          3.5050    -0.6040     9.1380 n3         1 BAJ      -0.716600
     42 S62          9.0870    -1.5580     1.5410 s6         1 BAJ       1.328900
     43 H1          -0.3610     0.3490     0.9600 h1         1 BAJ       0.050700
     44 H2          -0.3610     0.6570    -0.7820 h1         1 BAJ       0.050700
     45 H3          -2.4640    -3.3260     1.5810 ha         1 BAJ       0.138500
     46 H4          -2.3320    -0.7570    -1.0330 h1         1 BAJ       0.039700
     47 H5          -2.3330    -1.0630     0.7090 h1         1 BAJ       0.039700
     48 H6          -3.2330    -5.6330     1.1760 ha         1 BAJ       0.145000
     49 H7           1.6540     0.0010     2.1350 ha         1 BAJ       0.151000
     50 H8           5.3630     0.0010    -0.0230 ha         1 BAJ       0.145000
     51 H9           4.1160    -0.0040    -2.1470 ha         1 BAJ       0.155000
     52 H10         -3.2420    -4.8870    -3.0320 ha         1 BAJ       0.145000
     53 H11         -2.4730    -2.5820    -2.6250 ha         1 BAJ       0.138500
     54 H12          5.8790    -2.4260     1.5930 h1         1 BAJ       0.066200
     55 H13          6.5080    -0.9450     0.8380 h1         1 BAJ       0.066200
     56 H14          8.7440    -2.2460     4.1150 h1         1 BAJ       0.073200
     57 H15          7.0610    -2.9350     3.9700 h1         1 BAJ       0.073200
     58 H16          7.9010    -0.1260     4.7080 hc         1 BAJ       0.058200
     59 H17          6.9360    -1.2660     5.6640 hc         1 BAJ       0.058200
     60 H18          9.7620     0.3810     2.7900 h1         1 BAJ       0.096367
     61 H19         10.4440     0.3890     1.1590 h1         1 BAJ       0.096367
     62 H20          8.7470     0.8180     1.4090 h1         1 BAJ       0.096367
     63 H21          5.9500     0.9930     6.2900 h1         1 BAJ       0.066200
     64 H22          4.4120     1.8100     5.9790 h1         1 BAJ       0.066200
     65 H23          3.1960    -0.2820     6.4890 hc         1 BAJ       0.064700
     66 H24          4.7340    -1.1000     6.8010 hc         1 BAJ       0.064700
     67 H25          5.2130     0.4980     8.6270 h1         1 BAJ       0.038200
     68 H26          3.6760     1.3160     8.3150 h1         1 BAJ       0.038200
     69 H27          4.3990    -2.2640     8.2260 h1         1 BAJ       0.056450
     70 H28          3.7080    -2.5710     9.8290 h1         1 BAJ       0.056450
     71 H29          6.1790    -0.8980     9.2490 hc         1 BAJ       0.048950
     72 H30          6.1710    -2.5310     9.9380 hc         1 BAJ       0.048950
     73 H31          4.8970    -1.7240    11.8800 hc         1 BAJ       0.055700
     74 H32          4.4120     0.6730    12.1390 hc         1 BAJ       0.048950
     75 H33          5.1350     1.0030    10.5550 hc         1 BAJ       0.048950
     76 H34          2.7150    -0.7630    11.0710 h1         1 BAJ       0.056450
     77 H35          2.6780     0.8670    10.3780 h1         1 BAJ       0.056450
     78 H36          7.5460     0.0570    13.7460 hc         1 BAJ       0.035144
     79 H37          6.0630     0.8500    13.1970 hc         1 BAJ       0.035144
     80 H38          5.9940    -0.7820    13.8760 hc         1 BAJ       0.035144
     81 H39          8.0380    -2.2040    11.0140 hc         1 BAJ       0.035144
     82 H40          6.9750    -2.7870    12.3020 hc         1 BAJ       0.035144
     83 H41          8.4090    -1.8300    12.7020 hc         1 BAJ       0.035144
     84 H42          8.4510     0.6080    11.4760 hc         1 BAJ       0.035144
     85 H43          6.9010     1.2040    10.8660 hc         1 BAJ       0.035144
     86 H44          7.7290    -0.1200    10.0340 hc         1 BAJ       0.035144
     87 H45         -0.1440    -1.9740     0.4730 hn         1 BAJ       0.359800
     88 C70          4.9320     0.8610     5.9420 c3         1 BAJ       0.070300
     89 F13         -3.7050    -6.6670    -1.1760 f          1 BAJ      -0.141900
     90 O66          8.7010    -1.8140     0.1980 o          1 BAJ      -0.626300
     91 O68         10.0080    -2.4050     2.2140 o          1 BAJ      -0.626300
@<TRIPOS>BOND
     1    89    11 1
     2    11     4 ar
     3    11    13 ar
     4     4     2 ar
     5    13    17 ar
     6     2    21 ar
     7    17    21 ar
     8    34    12 1
     9    21     3 1
    10    37     3 1
    11    37     1 1
    12    36    12 1
    13    12    35 1
    14    12    10 1
    15    31    30 1
    16     1     5 1
    17    10     5 ar
    18    10     9 ar
    19     5     6 ar
    20    30    33 1
    21    30    32 1
    22    30    27 1
    23     9     8 ar
    24    28    27 1
    25    28    29 1
    26     6     7 ar
    27    27    26 1
    28    29    41 1
    29     8     7 ar
    30     7    14 1
    31    26    25 1
    32    41    24 1
    33    41    25 1
    34    14    38 2
    35    14    16 1
    36    38    39 1
    37    24    23 1
    38    16    18 1
    39    16    15 2
    40    18    40 1
    41    39    15 1
    42    39    88 1
    43    15    20 1
    44    23    88 1
    45    40    19 1
    46    40    42 1
    47    19    20 1
    48    22    42 1
    49    90    42 2
    50    42    91 2
    51     1    43 1
    52     1    44 1
    53     2    45 1
    54     3    46 1
    55     3    47 1
    56     4    48 1
    57     6    49 1
    58     8    50 1
    59     9    51 1
    60    13    52 1
    61    17    53 1
    62    18    54 1
    63    18    55 1
    64    19    56 1
    65    19    57 1
    66    20    58 1
    67    20    59 1
    68    22    60 1
    69    22    61 1
    70    22    62 1
    71    88    63 1
    72    88    64 1
    73    23    65 1
    74    23    66 1
    75    24    67 1
    76    24    68 1
    77    25    69 1
    78    25    70 1
    79    26    71 1
    80    26    72 1
    81    27    73 1
    82    28    74 1
    83    28    75 1
    84    29    76 1
    85    29    77 1
    86    31    78 1
    87    31    79 1
    88    31    80 1
    89    32    81 1
    90    32    82 1
    91    32    83 1
    92    33    84 1
    93    33    85 1
    94    33    86 1
    95    37    87 1
@<TRIPOS>SUBSTRUCTURE
     1 BAJ         1 TEMP              0 ****  ****    0 ROOT
