@<TRIPOS>MOLECULE
BAK
   44    47     1     0     0
SMALL
bcc


@<TRIPOS>ATOM
      1 C1           0.0000     0.0000     0.0000 ca         1 BAK      -0.249400
      2 C2           1.4020     0.0000     0.0000 ca         1 BAK      -0.104000
      3 C3           2.0950     0.0000     1.1710 ca         1 BAK       0.050500
      4 C4           1.4080    -0.0010     2.3950 ca         1 BAK       0.144900
      5 C5          -0.0030    -0.0000     2.4010 ca         1 BAK      -0.307200
      6 C6          -0.7010     0.0050     1.2030 ca         1 BAK       0.079500
      7 C7          -0.7370     0.0000    -1.2810 ce         1 BAK       0.012800
      8 C8           0.7680    -0.0020     4.4700 cc         1 BAK       0.210300
      9 C9           0.8230    -0.0020     5.9470 c          1 BAK       0.510500
     10 N1          -2.0690     0.0000    -1.2840 nv         1 BAK       0.363900
     11 N2          -0.0690     0.0010    -2.4330 nz         1 BAK       0.161900
     12 N3           1.8110    -0.0010     3.6760 nd         1 BAK      -0.416100
     13 N4          -0.3810    -0.0020     3.7250 na         1 BAK       0.382700
     14 C1'          5.8250    -0.0020     9.2670 ca         1 BAK      -0.249400
     15 C2'          6.4330    -0.0010     8.0040 ca         1 BAK      -0.104000
     16 C3'          5.6780     0.0000     6.8720 ca         1 BAK       0.050500
     17 C4'          4.2780    -0.0000     6.9600 ca         1 BAK       0.144900
     18 C5'          3.6600    -0.0010     8.2290 ca         1 BAK      -0.307200
     19 C6'          4.4380    -0.0020     9.3760 ca         1 BAK       0.079500
     20 C7'          6.6610    -0.0020    10.4880 ce         1 BAK       0.012800
     21 C8'          2.1300    -0.0020     6.6380 cc         1 BAK       0.210300
     22 N1'          7.8610    -0.5790    10.4710 nv         1 BAK       0.363900
     23 N2'          6.2130     0.5740    11.6010 nz         1 BAK       0.161900
     24 N3'          3.2980    -0.0060     6.0410 nd         1 BAK      -0.416100
     25 N4'          2.3040    -0.0020     7.9950 na         1 BAK       0.382700
     26 O9          -0.2060    -0.0030     6.5940 o          1 BAK      -0.477100
     27 H2           1.9380    -0.0040    -0.9410 ha         1 BAK       0.118500
     28 H3           3.1790     0.0000     1.1590 ha         1 BAK       0.155500
     29 H6          -1.7840     0.0050     1.2020 ha         1 BAK       0.106500
     30 HH11        -2.5710     0.0000    -0.4180 hn         1 BAK       0.164700
     31 HH12        -2.5680     0.0010    -2.1510 hn         1 BAK       0.164700
     32 HH21        -0.7180     0.0020    -3.1950 hn         1 BAK       0.258467
     33 HH22         0.5070     0.8170    -2.4850 hn         1 BAK       0.258467
     34 HN4         -1.3070    -0.1530     4.0730 hn         1 BAK       0.167700
     35 H2'          7.5130    -0.0010     7.9290 ha         1 BAK       0.118500
     36 H3'          6.1590     0.0010     5.9010 ha         1 BAK       0.155500
     37 H6'          3.9680    -0.0020    10.3530 ha         1 BAK       0.106500
     38 H1'1         8.1970    -1.0120     9.6340 hn         1 BAK       0.164700
     39 H1'2         8.4270    -0.5800    11.2970 hn         1 BAK       0.164700
     40 H2'1         5.7120     1.4080    11.3670 hn         1 BAK       0.258467
     41 H2'2         5.6040    -0.0580    12.0820 hn         1 BAK       0.258467
     42 HN4'         1.5880     0.1430     8.6800 hn         1 BAK       0.167700
     43 H23          0.5070    -0.8160    -2.4860 hn         1 BAK       0.258467
     44 H2'3         6.9870     0.8090    12.1900 hn         1 BAK       0.258467
@<TRIPOS>BOND
     1     1     2 ar  
     2     1     6 ar  
     3     1     7 1   
     4     2     3 ar  
     5     2    27 1   
     6     3     4 ar  
     7     3    28 1   
     8     4     5 ar  
     9     4    12 1   
    10     5     6 ar  
    11     5    13 1   
    12     6    29 1   
    13     7    10 2   
    14     7    11 1   
    15     8     9 1   
    16     8    12 2   
    17     8    13 1   
    18     9    21 1   
    19     9    26 2   
    20    10    30 1   
    21    10    31 1   
    22    11    32 1   
    23    11    33 1   
    24    11    43 1   
    25    13    34 1   
    26    14    15 ar  
    27    14    19 ar  
    28    14    20 1   
    29    15    16 ar  
    30    15    35 1   
    31    16    17 ar  
    32    16    36 1   
    33    17    18 ar  
    34    17    24 1   
    35    18    19 ar  
    36    18    25 1   
    37    19    37 1   
    38    20    22 2   
    39    20    23 1   
    40    21    24 2   
    41    21    25 1   
    42    22    38 1   
    43    22    39 1   
    44    23    40 1   
    45    23    41 1   
    46    23    44 1   
    47    25    42 1   
@<TRIPOS>SUBSTRUCTURE
     1 BAK         1 TEMP              0 ****  ****    0 ROOT
