@<TRIPOS>MOLECULE
molecule
   44    47     1     0     0
SMALL
bcc


@<TRIPOS>ATOM
      1 C1           0.0000     0.0000     0.0000 ca         1 BAK      -0.253400
      2 C2           1.4020     0.0000     0.0000 ca         1 BAK      -0.111500
      3 C3           2.0950     0.0000     1.1710 ca         1 BAK      -0.010500
      4 C4           1.4080    -0.0010     2.3950 ca         1 BAK       0.196400
      5 C5          -0.0030    -0.0000     2.4010 ca         1 BAK      -0.103200
      6 C6          -0.7010     0.0050     1.2030 ca         1 BAK       0.006000
      7 C7          -0.7370     0.0000    -1.2810 ce         1 BAK       0.488800
      8 C8           0.7680    -0.0020     4.4700 cc         1 BAK       0.452300
      9 C9           0.8230    -0.0020     5.9470 c          1 BAK       0.464500
     10 N1          -2.0690     0.0000    -1.2840 nv         1 BAK      -0.341100
     11 N2          -0.0690     0.0010    -2.4330 nz         1 BAK      -0.783600
     12 N3           1.8110    -0.0010     3.6760 nd         1 BAK      -0.518600
     13 N4          -0.3810    -0.0020     3.7250 na         1 BAK      -0.198300
     14 C1'          5.8250    -0.0020     9.2670 ca         1 BAK      -0.253400
     15 C2'          6.4330    -0.0010     8.0040 ca         1 BAK      -0.111500
     16 C3'          5.6780     0.0000     6.8720 ca         1 BAK      -0.010500
     17 C4'          4.2780    -0.0000     6.9600 ca         1 BAK       0.196400
     18 C5'          3.6600    -0.0010     8.2290 ca         1 BAK      -0.103200
     19 C6'          4.4380    -0.0020     9.3760 ca         1 BAK       0.006000
     20 C7'          6.6610    -0.0020    10.4880 ce         1 BAK       0.488800
     21 C8'          2.1300    -0.0020     6.6380 cc         1 BAK       0.452300
     22 N1'          7.8610    -0.5790    10.4710 nv         1 BAK      -0.341100
     23 N2'          6.2130     0.5740    11.6010 nz         1 BAK      -0.783600
     24 N3'          3.2980    -0.0060     6.0410 nd         1 BAK      -0.518600
     25 N4'          2.3040    -0.0020     7.9950 na         1 BAK      -0.198300
     26 O9          -0.2060    -0.0030     6.5940 o          1 BAK      -0.409100
     27 H2           1.9380    -0.0040    -0.9410 ha         1 BAK       0.156000
     28 H3           3.1790     0.0000     1.1590 ha         1 BAK       0.206500
     29 H6          -1.7840     0.0050     1.2020 ha         1 BAK       0.148500
     30 HH11        -2.5680     0.0010    -2.1510 hn         1 BAK       0.368450
     31 HH12        -2.5710     0.0000    -0.4180 hn         1 BAK       0.368450
     32 HH21         0.5070     0.8170    -2.4850 hn         1 BAK       0.514133
     33 HH22         0.5050    -0.8170    -2.4870 hn         1 BAK       0.514133
     34 HN4         -1.3070    -0.1530     4.0730 hn         1 BAK       0.358200
     35 H2'          7.5130    -0.0010     7.9290 ha         1 BAK       0.156000
     36 H3'          6.1590     0.0010     5.9010 ha         1 BAK       0.206500
     37 H6'          3.9680    -0.0020    10.3530 ha         1 BAK       0.148500
     38 H1'1         8.4270    -0.5800    11.2970 hn         1 BAK       0.368450
     39 H1'2         8.1970    -1.0130     9.6340 hn         1 BAK       0.368450
     40 H2'1         6.9870     0.8050    12.1920 hn         1 BAK       0.514133
     41 H2'2         5.7120     1.4080    11.3670 hn         1 BAK       0.514133
     42 HN4'         1.5880     0.1430     8.6800 hn         1 BAK       0.358200
     43 H23         -0.7180    -0.0010    -3.1950 hn         1 BAK       0.514133
     44 H2'3         5.6050    -0.0590    12.0820 hn         1 BAK       0.514133
@<TRIPOS>BOND
     1     1     2 ar
     2     1     6 ar
     3     1     7 1
     4     2     3 ar
     5     2    27 1
     6     3     4 ar
     7     3    28 1
     8     4     5 ar
     9     4    12 1
    10     5     6 ar
    11     5    13 1
    12     6    29 1
    13     7    10 2
    14     7    11 1
    15     8     9 1
    16     8    12 2
    17     8    13 1
    18     9    21 1
    19     9    26 2
    20    10    30 1
    21    10    31 1
    22    11    32 1
    23    11    33 1
    24    13    34 1
    25    14    15 ar
    26    14    19 ar
    27    14    20 1
    28    15    16 ar
    29    15    35 1
    30    16    17 ar
    31    16    36 1
    32    17    18 ar
    33    17    24 1
    34    18    19 ar
    35    18    25 1
    36    19    37 1
    37    20    22 2
    38    20    23 1
    39    21    24 2
    40    21    25 1
    41    22    38 1
    42    22    39 1
    43    23    40 1
    44    23    41 1
    45    25    42 1
    46    43    11 1
    47    44    23 1
@<TRIPOS>SUBSTRUCTURE
     1 BAK         1 TEMP              0 ****  ****    0 ROOT
