@<TRIPOS>MOLECULE
molecule
   19    19     1     0     0
SMALL
bcc


@<TRIPOS>ATOM
      1 C1           0.0000     0.0000     0.0000 ca         1 BAM      -0.280900
      2 C2           1.3960     0.0000     0.0000 ca         1 BAM      -0.054500
      3 C3           2.0830     0.0000     1.1970 ca         1 BAM      -0.095500
      4 C4           1.3910    -0.0100     2.3940 ca         1 BAM       0.039000
      5 C5           0.0080    -0.0150     2.4020 ca         1 BAM      -0.095500
      6 C6          -0.6910    -0.0110     1.2120 ca         1 BAM      -0.054500
      7 C           -0.7430     0.0040    -1.2800 ce         1 BAM       0.493800
      8 N1          -0.2160     0.5900    -2.3540 nz         1 BAM      -0.785600
      9 N2          -1.9390    -0.5770    -1.3580 nv         1 BAM      -0.345100
     10 HC21         1.9370    -0.0730    -0.9350 ha         1 BAM       0.151000
     11 HC31         3.1660     0.0060     1.1980 ha         1 BAM       0.203000
     12 HC41         1.9350    -0.0130     3.3310 ha         1 BAM       0.204000
     13 HC51        -0.5280    -0.0220     3.3440 ha         1 BAM       0.203000
     14 HC61        -1.7720     0.0580     1.2200 ha         1 BAM       0.151000
     15 HN11         0.2790     1.4140    -2.0760 hn         1 BAM       0.512133
     16 HN12        -0.9470     0.8400    -2.9900 hn         1 BAM       0.512133
     17 HN21        -2.4420    -0.5740    -2.2230 hn         1 BAM       0.366200
     18 HN22        -2.3360    -1.0170    -0.5510 hn         1 BAM       0.366200
     19 H13          0.4150    -0.0430    -2.8030 hn         1 BAM       0.512133
@<TRIPOS>BOND
     1     1     2 ar
     2     1     6 ar
     3     1     7 1
     4     2     3 ar
     5     2    10 1
     6     3     4 ar
     7     3    11 1
     8     4     5 ar
     9     4    12 1
    10     5     6 ar
    11     5    13 1
    12     6    14 1
    13     7     8 1
    14     7     9 2
    15     8    15 1
    16     8    16 1
    17     9    17 1
    18     9    18 1
    19    19     8 1
@<TRIPOS>SUBSTRUCTURE
     1 BAM         1 TEMP              0 ****  ****    0 ROOT
