@<TRIPOS>MOLECULE
molecule
   56    57     1     0     0
SMALL
bcc


@<TRIPOS>ATOM
      1 OH1          0.0000     0.0000     0.0000 oh         1 BAN      -0.383100
      2 N1           1.4020     0.0000     0.0000 ns         1 BAN      -0.463400
      3 C1           1.9980     0.0000     1.2370 c          1 BAN       0.676100
      4 O1           1.3960     0.0010     2.3080 o          1 BAN      -0.519100
      5 CA2          3.5250    -0.0420     1.1460 c3         1 BAN      -0.214700
      6 CB2          4.1670     1.1880     1.8160 c3         1 BAN      -0.017100
      7 CG2          5.5760     1.4490     1.3410 ca         1 BAN      -0.104300
      8 CD1          6.6370     0.8610     2.0100 ca         1 BAN      -0.118500
      9 CD2          5.7800     2.2700     0.2440 ca         1 BAN      -0.118500
     10 CE1          7.9390     1.1020     1.5710 ca         1 BAN      -0.123500
     11 CE2          7.0820     2.5110    -0.1950 ca         1 BAN      -0.123500
     12 CZ2          8.1620     1.9270     0.4680 ca         1 BAN      -0.125000
     13 C2           4.0850    -1.3060     1.7960 c          1 BAN       0.680100
     14 O2           3.9310    -1.5560     2.9910 o          1 BAN      -0.556100
     15 N3           4.7740    -2.1060     0.8960 ns         1 BAN      -0.582900
     16 CA3          5.4050    -3.3510     1.2680 c3         1 BAN       0.039700
     17 CB3          4.8340    -4.5180     0.4780 c3         1 BAN      -0.104100
     18 C3           6.9020    -3.2110     1.0250 c          1 BAN       0.663100
     19 O3           7.3740    -2.5450     0.1050 o          1 BAN      -0.579100
     20 N4           7.6490    -3.9510     1.9310 ns         1 BAN      -0.581900
     21 CA4          9.0920    -4.0150     1.8830 c3         1 BAN       0.025000
     22 C4           9.6860    -2.9050     2.7270 c          1 BAN       0.657100
     23 O4           8.9880    -2.1010     3.3360 o          1 BAN      -0.545100
     24 C10         11.9910    -2.0850     3.3300 ca         1 BAN       0.122600
     25 C5          13.3500    -2.2870     3.1620 ca         1 BAN      -0.188500
     26 C6          14.2500    -1.4360     3.8040 ca         1 BAN      -0.028000
     27 C7          13.7780    -0.3960     4.6040 ca         1 BAN      -0.199200
     28 C8          12.4050    -0.2070     4.7630 ca         1 BAN      -0.028000
     29 C9          11.5050    -1.0580     4.1220 ca         1 BAN      -0.188500
     30 N5          14.6950     0.4700     5.2570 no         1 BAN       0.280200
     31 O5          15.9260     0.2830     5.1010 o          1 BAN      -0.209500
     32 O6          14.2480     1.4000     5.9720 o          1 BAN      -0.209500
     33 N2          11.0770    -2.9480     2.6800 ns         1 BAN      -0.494100
     34 H1          -0.3140     0.2940    -0.8390 ho         1 BAN       0.403000
     35 H2           1.9020    -0.3400    -0.7970 hn         1 BAN       0.321500
     36 H5           3.8040    -0.0450     0.0990 hc         1 BAN       0.057700
     37 H6           4.1840     1.0320     2.8880 hc         1 BAN       0.073200
     38 H7           3.5590     2.0590     1.6000 hc         1 BAN       0.073200
     39 H9           6.4570     0.2220     2.8660 ha         1 BAN       0.137000
     40 H11          4.9380     2.7210    -0.2670 ha         1 BAN       0.137000
     41 H13          8.7760     0.6480     2.0860 ha         1 BAN       0.132500
     42 H15          7.2550     3.1520    -1.0510 ha         1 BAN       0.132500
     43 H17          9.1730     2.1140     0.1270 ha         1 BAN       0.130000
     44 H21          4.8370    -1.8060    -0.0560 hn         1 BAN       0.328500
     45 H22          5.2370    -3.5280     2.3230 h1         1 BAN       0.094700
     46 H23          3.7540    -4.5150     0.5590 hc         1 BAN       0.051033
     47 H24          5.2230    -5.4480     0.8750 hc         1 BAN       0.051033
     48 H25          5.1180    -4.4230    -0.5630 hc         1 BAN       0.051033
     49 H28          7.1690    -4.4610     2.6460 hn         1 BAN       0.328500
     50 H29          9.4230    -3.9040     0.8580 h1         1 BAN       0.078700
     51 H39          9.4210    -4.9730     2.2660 h1         1 BAN       0.078700
     52 H33         13.7110    -3.0960     2.5390 ha         1 BAN       0.168000
     53 H34         15.3160    -1.5830     3.6810 ha         1 BAN       0.173000
     54 H36         12.0380     0.6000     5.3850 ha         1 BAN       0.173000
     55 H37         10.4380    -0.9160     4.2410 ha         1 BAN       0.168000
     56 H8          11.4780    -3.6750     2.1210 hn         1 BAN       0.321500
@<TRIPOS>BOND
     1     1     2 1
     2     1    34 1
     3     2     3 1
     4     2    35 1
     5     3     4 2
     6     3     5 1
     7     5     6 1
     8     5    13 1
     9     5    36 1
    10     6     7 1
    11     6    37 1
    12     6    38 1
    13     7     8 ar
    14     7     9 ar
    15     8    10 ar
    16     8    39 1
    17     9    11 ar
    18     9    40 1
    19    10    12 ar
    20    10    41 1
    21    11    12 ar
    22    11    42 1
    23    12    43 1
    24    13    14 2
    25    13    15 1
    26    15    16 1
    27    15    44 1
    28    16    17 1
    29    16    18 1
    30    16    45 1
    31    17    46 1
    32    17    47 1
    33    17    48 1
    34    18    19 2
    35    18    20 1
    36    20    21 1
    37    20    49 1
    38    21    22 1
    39    21    50 1
    40    21    51 1
    41    22    23 2
    42    22    33 1
    43    24    25 ar
    44    24    29 ar
    45    24    33 1
    46    25    26 ar
    47    25    52 1
    48    26    27 ar
    49    26    53 1
    50    27    28 ar
    51    27    30 1
    52    28    29 ar
    53    28    54 1
    54    29    55 1
    55    30    31 1
    56    30    32 1
    57    33    56 1
@<TRIPOS>SUBSTRUCTURE
     1 BAN         1 TEMP              0 ****  ****    0 ROOT
