@<TRIPOS>MOLECULE
molecule
   42    45     1     0     0
SMALL
bcc


@<TRIPOS>ATOM
      1 C1           0.0000     0.0000     0.0000 ca         1 BAO      -0.180900
      2 C2           1.4010     0.0000     0.0000 ca         1 BAO      -0.163000
      3 C3           2.0940     0.0000     1.1720 ca         1 BAO      -0.025500
      4 C4           1.4060     0.0000     2.3950 ca         1 BAO       0.118400
      5 C5          -0.0040     0.0000     2.4000 ca         1 BAO      -0.096200
      6 C6          -0.7010     0.0050     1.2000 ca         1 BAO      -0.014000
      7 C7          -0.7380     0.0000    -1.2830 ce         1 BAO       0.545800
      8 N1          -2.0390     0.0000    -1.2870 n2         1 BAO      -0.684600
      9 N2          -0.0450     0.0000    -2.4760 nz         1 BAO      -0.800600
     10 N3           1.8080    -0.0000     3.6770 nc         1 BAO      -0.515600
     11 N4          -0.3830    -0.0000     3.7240 na         1 BAO      -0.209800
     12 C8           0.7650    -0.0000     4.4700 cd         1 BAO       0.385300
     13 C1'          5.8190     0.0000     9.2680 ca         1 BAO      -0.180900
     14 C2'          6.4270     0.0000     8.0060 ca         1 BAO      -0.163000
     15 C3'          5.6730     0.0000     6.8730 ca         1 BAO      -0.025500
     16 C4'          4.2720     0.0000     6.9610 ca         1 BAO       0.118400
     17 C5'          3.6560     0.0000     8.2290 ca         1 BAO      -0.096200
     18 C6'          4.4330     0.0000     9.3760 ca         1 BAO      -0.014000
     19 C7'          6.6550    -0.0000    10.4890 ce         1 BAO       0.545800
     20 N1'          6.0910    -0.0000    11.6640 n2         1 BAO      -0.684600
     21 N2'          8.0280    -0.0000    10.3840 nz         1 BAO      -0.800600
     22 N3'          3.2930    -0.0050     6.0410 nc         1 BAO      -0.515600
     23 N4'          2.2980     0.0000     7.9950 na         1 BAO      -0.209800
     24 C8'          2.1260     0.0000     6.6360 cd         1 BAO       0.385300
     25 C9           0.8210    -0.0000     5.9460 c          1 BAO       0.485500
     26 O9          -0.2090    -0.0000     6.5920 o          1 BAO      -0.479100
     27 H2           1.9380    -0.0040    -0.9410 ha         1 BAO       0.113500
     28 H3           3.1770    -0.0000     1.1610 ha         1 BAO       0.171000
     29 H6          -1.7840     0.0050     1.1990 ha         1 BAO       0.172500
     30 HN1         -2.5380     0.0000    -2.1540 hn         1 BAO       0.438900
     31 HN21         0.5300    -0.8180    -2.5280 hn         1 BAO       0.467633
     32 HN22         0.5310     0.8170    -2.5280 hn         1 BAO       0.467633
     33 HN4         -1.3210    -0.0000     4.0740 hn         1 BAO       0.338700
     34 H2'          7.5080    -0.0000     7.9310 ha         1 BAO       0.113500
     35 H3'          6.1540    -0.0000     5.9020 ha         1 BAO       0.171000
     36 H6'          3.9630     0.0000    10.3520 ha         1 BAO       0.172500
     37 H1'          6.6550    -0.0000    12.4900 hn         1 BAO       0.438900
     38 H2'1         8.4330     0.0000    11.2990 hn         1 BAO       0.467633
     39 H2'2         8.3250    -0.8170     9.8880 hn         1 BAO       0.467633
     40 HN4'         1.5750     0.0030     8.6860 hn         1 BAO       0.338700
     41 H23         -0.6940     0.0010    -3.2380 hn         1 BAO       0.467633
     42 H2'3         8.3250     0.8170     9.8880 hn         1 BAO       0.467633
@<TRIPOS>BOND
     1     1     2 ar
     2     1     6 ar
     3     1     7 1
     4     2     3 ar
     5     2    27 1
     6     3     4 ar
     7     3    28 1
     8     4     5 ar
     9     4    10 1
    10     5     6 ar
    11     5    11 1
    12     6    29 1
    13     7     8 2
    14     7     9 1
    15     8    30 1
    16     9    31 1
    17     9    32 1
    18    10    12 2
    19    11    12 1
    20    11    33 1
    21    12    25 1
    22    13    14 ar
    23    13    18 ar
    24    13    19 1
    25    14    15 ar
    26    14    34 1
    27    15    16 ar
    28    15    35 1
    29    16    17 ar
    30    16    22 1
    31    17    18 ar
    32    17    23 1
    33    18    36 1
    34    19    20 2
    35    19    21 1
    36    20    37 1
    37    21    38 1
    38    21    39 1
    39    22    24 2
    40    23    24 1
    41    23    40 1
    42    24    25 1
    43    25    26 2
    44    41     9 1
    45    42    21 1
@<TRIPOS>SUBSTRUCTURE
     1 BAO         1 TEMP              0 ****  ****    0 ROOT
