@<TRIPOS>MOLECULE
molecule
   39    43     1     0     0
SMALL
bcc


@<TRIPOS>ATOM
      1 C1           0.0000     0.0000     0.0000 ca         1 BAP      -0.113000
      2 C2           1.3810     0.0000     0.0000 ca         1 BAP      -0.126000
      3 C3           2.1040     0.0000     1.1780 ca         1 BAP      -0.114000
      4 C3A          1.4410    -0.0010     2.4070 ca         1 BAP      -0.031000
      5 C4           2.1440    -0.0020     3.6360 ca         1 BAP      -0.114000
      6 C5           1.4830    -0.0040     4.8160 ca         1 BAP      -0.117000
      7 C5A          0.0670    -0.0050     4.8540 ca         1 BAP      -0.035000
      8 C6          -0.6280    -0.0120     6.0730 ca         1 BAP      -0.042300
      9 C7          -2.0050    -0.0100     6.0790 ca         1 BAP      -0.072300
     10 C8          -2.7240    -0.0080     4.8890 ca         1 BAP      -0.085000
     11 C8A         -2.0700    -0.0050     3.6590 ca         1 BAP      -0.038000
     12 C9          -2.7770    -0.0030     2.4320 ca         1 BAP      -0.108000
     13 C10         -2.1170    -0.0010     1.2500 ca         1 BAP      -0.119000
     14 C1A         -0.7020    -0.0000     1.2080 ca         1 BAP      -0.029000
     15 C3B          0.0270    -0.0010     2.4180 ca         1 BAP      -0.016000
     16 C5B         -0.6580    -0.0030     3.6450 ca         1 BAP      -0.009000
     17 C1'         -2.8050    -0.0010     7.3570 c3         1 BAP       0.195400
     18 O1'         -3.9130    -0.8950     7.2260 oh         1 BAP      -0.605800
     19 C2'         -1.9430    -0.4390     8.5380 c3         1 BAP       0.129100
     20 O2'         -2.6550    -0.2300     9.7590 oh         1 BAP      -0.601800
     21 C3'         -0.6600     0.4000     8.5350 c3         1 BAP       0.134100
     22 O3'         -0.9920     1.7850     8.4220 oh         1 BAP      -0.591800
     23 C4'          0.1890    -0.0240     7.3400 c3         1 BAP      -0.055100
     24 H1          -0.5400     0.0000    -0.9390 ha         1 BAP       0.132000
     25 H2           1.9100     0.0000    -0.9450 ha         1 BAP       0.129000
     26 H3           3.1870     0.0000     1.1480 ha         1 BAP       0.132000
     27 H4           3.2280    -0.0000     3.6310 ha         1 BAP       0.130000
     28 H5           2.0430    -0.0050     5.7430 ha         1 BAP       0.130000
     29 H8          -3.8060    -0.0100     4.9180 ha         1 BAP       0.140000
     30 H9          -3.8600    -0.0030     2.4390 ha         1 BAP       0.132000
     31 H10         -2.6790     0.0010     0.3240 ha         1 BAP       0.132000
     32 H1'         -3.1710     1.0020     7.5390 h1         1 BAP       0.074700
     33 HO1         -4.7060    -0.4510     7.4770 ho         1 BAP       0.408000
     34 H2'         -1.6910    -1.4880     8.4330 h1         1 BAP       0.056700
     35 HO2         -2.6210    -1.0140    10.2820 ho         1 BAP       0.404000
     36 H3'         -0.1100     0.2250     9.4510 h1         1 BAP       0.039700
     37 HO3         -0.5120     2.2770     9.0670 ho         1 BAP       0.404000
     38 H4'1         1.0200     0.6620     7.2330 hc         1 BAP       0.061200
     39 H4'2         0.5660    -1.0250     7.5090 hc         1 BAP       0.061200
@<TRIPOS>BOND
     1     1     2 ar
     2     1    14 ar
     3     1    24 1
     4     2     3 ar
     5     2    25 1
     6     3     4 ar
     7     3    26 1
     8     4     5 ar
     9     4    15 ar
    10     5     6 ar
    11     5    27 1
    12     6     7 ar
    13     6    28 1
    14     7     8 ar
    15     7    16 ar
    16     8     9 ar
    17     8    23 1
    18     9    10 ar
    19     9    17 1
    20    10    11 ar
    21    10    29 1
    22    11    12 ar
    23    11    16 ar
    24    12    13 ar
    25    12    30 1
    26    13    14 ar
    27    13    31 1
    28    14    15 ar
    29    15    16 ar
    30    17    18 1
    31    17    19 1
    32    17    32 1
    33    18    33 1
    34    19    20 1
    35    19    21 1
    36    19    34 1
    37    20    35 1
    38    21    22 1
    39    21    23 1
    40    21    36 1
    41    22    37 1
    42    23    38 1
    43    23    39 1
@<TRIPOS>SUBSTRUCTURE
     1 BAP         1 TEMP              0 ****  ****    0 ROOT
