@<TRIPOS>MOLECULE
BAP
   39    43     1     0     0
SMALL
bcc


@<TRIPOS>ATOM
      1 C1          0.0350    0.0270   -0.0330 ca        1 BAP     -0.113000
      2 C2          1.4290    0.0270   -0.0430 ca        1 BAP     -0.126000
      3 C3          2.1470    0.0170    1.1500 ca        1 BAP     -0.113000
      4 C3A         1.4750    0.0080    2.3800 ca        1 BAP     -0.035000
      5 C4          2.1790   -0.0080    3.6340 ca        1 BAP     -0.110000
      6 C5          1.5140   -0.0150    4.8170 ca        1 BAP     -0.122000
      7 C5A         0.0740   -0.0010    4.8790 ca        1 BAP     -0.031000
      8 C6         -0.6290    0.0000    6.1030 ca        1 BAP     -0.063300
      9 C7         -2.0310    0.0010    6.0900 ca        1 BAP     -0.085300
     10 C8         -2.7360   -0.0020    4.8850 ca        1 BAP     -0.080000
     11 C8A        -2.0620    0.0020    3.6610 ca        1 BAP     -0.038000
     12 C9         -2.7690    0.0050    2.4070 ca        1 BAP     -0.110000
     13 C10        -2.1040    0.0140    1.2250 ca        1 BAP     -0.116000
     14 C1A        -0.6650    0.0180    1.1800 ca        1 BAP     -0.031000
     15 C3B         0.0570    0.0110    2.4020 ca        1 BAP     -0.017000
     16 C5B        -0.6430    0.0060    3.6540 ca        1 BAP     -0.009000
     17 C1'        -2.8140    0.0470    7.3680 c3        1 BAP      0.161400
     18 O1'        -4.0390   -0.6510    7.1870 oh        1 BAP     -0.595800
     19 C2'        -2.0200   -0.5530    8.5400 c3        1 BAP      0.076100
     20 O2'        -2.7700   -0.4170    9.7320 oh        1 BAP     -0.599800
     21 C3'        -0.6530    0.1270    8.6520 c3        1 BAP      0.113100
     22 O3'        -0.8130    1.4850    9.0310 oh        1 BAP     -0.601800
     23 C4'         0.1520   -0.0310    7.3710 c3        1 BAP     -0.072100
     24 H1         -0.5220    0.0330   -0.9810 ha        1 BAP      0.135000
     25 H2          1.9660    0.0350   -1.0030 ha        1 BAP      0.134000
     26 H3          3.2470    0.0160    1.1320 ha        1 BAP      0.134000
     27 H4          3.2790   -0.0180    3.6030 ha        1 BAP      0.134000
     28 H5          2.0790   -0.0360    5.7620 ha        1 BAP      0.132000
     29 H8         -3.8390   -0.0190    4.9070 ha        1 BAP      0.157000
     30 H9         -3.8690   -0.0020    2.4430 ha        1 BAP      0.137000
     31 H10        -2.6460    0.0170    0.2670 ha        1 BAP      0.135000
     32 H1'        -3.0610    1.1250    7.6070 h1        1 BAP      0.040700
     33 HO1        -4.3840   -0.8320    8.0730 ho        1 BAP      0.422000
     34 H2'        -1.9000   -1.6630    8.3980 h1        1 BAP      0.099700
     35 HO2        -2.6630    0.4950   10.0390 ho        1 BAP      0.418000
     36 H3'        -0.0870   -0.3210    9.5210 h1        1 BAP      0.090700
     37 HO3        -1.1070    1.9740    8.2520 ho        1 BAP      0.408000
     38 H4'1        0.9250    0.7880    7.3530 hc        1 BAP      0.070700
     39 H4'2        0.7000   -1.0120    7.4200 hc        1 BAP      0.070700
@<TRIPOS>BOND
     1    1    2 ar  
     2    1   14 ar  
     3    1   24 1   
     4    2    3 ar  
     5    2   25 1   
     6    3    4 ar  
     7    3   26 1   
     8    4    5 ar  
     9    4   15 ar  
    10    5    6 ar  
    11    5   27 1   
    12    6    7 ar  
    13    6   28 1   
    14    7    8 ar  
    15    7   16 ar  
    16    8    9 ar  
    17    8   23 1   
    18    9   10 ar  
    19    9   17 1   
    20   10   11 ar  
    21   10   29 1   
    22   11   12 ar  
    23   11   16 ar  
    24   12   13 ar  
    25   12   30 1   
    26   13   14 ar  
    27   13   31 1   
    28   14   15 ar  
    29   15   16 ar  
    30   17   18 1   
    31   17   19 1   
    32   17   32 1   
    33   18   33 1   
    34   19   20 1   
    35   19   21 1   
    36   19   34 1   
    37   20   35 1   
    38   21   22 1   
    39   21   23 1   
    40   21   36 1   
    41   22   37 1   
    42   23   38 1   
    43   23   39 1   
@<TRIPOS>SUBSTRUCTURE
     1 BAP         1 TEMP              0 ****  ****    0 ROOT
