@<TRIPOS>MOLECULE
BAQ
   13    13     1     0     0
SMALL
bcc


@<TRIPOS>ATOM
      1 OAA          0.0000     0.0000     0.0000 o          1 BAQ      -0.670500
      2 CAF          1.2120     0.0000     0.0000 c          1 BAQ       0.621500
      3 CAD          2.0790     0.0000     1.2400 c3         1 BAQ      -0.111400
      4 CAB          3.4760    -0.4200     0.7260 c3         1 BAQ      -0.032400
      5 CAC          3.4080     0.0090    -0.7570 c3         1 BAQ       0.042000
      6 NAE          1.9820    -0.0050    -1.1030 ns         1 BAQ      -0.208900
      7 H1           1.7090    -0.7210     1.9590 hc         1 BAQ       0.042700
      8 H2           2.1190     0.9920     1.6730 hc         1 BAQ       0.042700
      9 H3           3.6120    -1.4910     0.8110 hc         1 BAQ       0.025700
     10 H4           4.2570     0.1200     1.2480 hc         1 BAQ       0.025700
     11 H5           3.9500    -0.6970    -1.3750 h1         1 BAQ       0.013700
     12 H6           3.8110     1.0080    -0.8760 h1         1 BAQ       0.013700
     13 H7           1.6280    -0.0170    -2.0390 hn         1 BAQ       0.193500
@<TRIPOS>BOND
     1     1     2 2   
     2     2     3 1   
     3     2     6 1   
     4     3     4 1   
     5     3     7 1   
     6     3     8 1   
     7     4     5 1   
     8     4     9 1   
     9     4    10 1   
    10     5     6 1   
    11     5    11 1   
    12     5    12 1   
    13     6    13 1   
@<TRIPOS>SUBSTRUCTURE
     1 BAQ         1 TEMP              0 ****  ****    0 ROOT
