@<TRIPOS>MOLECULE
molecule
   26    27     1     0     0
SMALL
bcc


@<TRIPOS>ATOM
      1 C'           0.0000     0.0000     0.0000 c2         1 BAR      -0.273200
      2 C1           1.2930     0.0000     0.0000 c2         1 BAR      -0.033200
      3 C2           2.1110     0.0000     1.2670 c3         1 BAR      -0.121800
      4 C3           1.2690    -0.6340     2.3870 c3         1 BAR      -0.077400
      5 C4          -0.8570    -0.0320     1.2280 c3         1 BAR       0.119300
      6 C5          -0.0320     0.1560     2.4920 c3         1 BAR       0.132100
      7 C6           2.3320     1.4750     1.6580 c3         1 BAR      -0.060400
      8 C7           0.9420     2.1200     1.7240 c3         1 BAR       0.027100
      9 C8           3.4130    -0.7350     1.0790 c          1 BAR       0.916600
     10 C9           0.2040     1.9350     0.4230 c          1 BAR       0.904600
     11 O1          -1.5300    -1.2900     1.2950 oh         1 BAR      -0.650800
     12 O2          -1.0040     1.9220     0.4120 o          1 BAR      -0.835800
     13 O3           0.8890     1.7880    -0.7210 o          1 BAR      -0.835800
     14 O4           3.6630    -1.7030     1.7570 o          1 BAR      -0.874800
     15 O5           4.2930    -0.3170     0.1560 o          1 BAR      -0.874800
     16 O'           0.1990     1.5200     2.7770 os         1 BAR      -0.428600
     17 H'          -0.4960    -0.0610    -0.9610 ha         1 BAR       0.103000
     18 H1           1.7740     0.2250    -0.9440 ha         1 BAR       0.167000
     19 H31          1.8070    -0.5830     3.3250 hc         1 BAR       0.038700
     20 H32          1.0530    -1.6680     2.1430 hc         1 BAR       0.038700
     21 H4          -1.5910     0.7630     1.1660 h1         1 BAR       0.130700
     22 H5          -0.5990    -0.2580     3.3170 h1         1 BAR       0.020700
     23 H61          2.8130     1.5340     2.6270 hc         1 BAR       0.039200
     24 H62          2.9340     1.9710     0.9070 hc         1 BAR       0.039200
     25 H7           1.0530     3.1780     1.9280 h1         1 BAR       0.033700
     26 HO1         -2.4590    -1.1560     1.2010 ho         1 BAR       0.357000
@<TRIPOS>BOND
     1     1     2 2
     2     1     5 1
     3     1    17 1
     4     2     3 1
     5     2    18 1
     6     3     4 1
     7     3     7 1
     8     3     9 1
     9     4     6 1
    10     4    19 1
    11     4    20 1
    12     5     6 1
    13     5    11 1
    14     5    21 1
    15     6    16 1
    16     6    22 1
    17     7     8 1
    18     7    23 1
    19     7    24 1
    20     8    10 1
    21     8    16 1
    22     8    25 1
    23     9    14 1
    24     9    15 1
    25    10    12 1
    26    10    13 1
    27    11    26 1
@<TRIPOS>SUBSTRUCTURE
     1 BAR         1 TEMP              0 ****  ****    0 ROOT
