@<TRIPOS>MOLECULE
BAR
   26    27     1     0     0
SMALL
bcc


@<TRIPOS>ATOM
      1 C'         -0.0200   -0.5710   -0.0810 c2        1 BAR     -0.259200
      2 C1          1.3130   -0.4740   -0.0560 c2        1 BAR     -0.076200
      3 C2          2.0550   -0.1230    1.1930 c3        1 BAR     -0.139800
      4 C3          1.2650   -0.6710    2.3780 c3        1 BAR     -0.080400
      5 C4         -0.8780   -0.2020    1.0840 c3        1 BAR      0.124300
      6 C5         -0.0940    0.0100    2.3960 c3        1 BAR      0.163100
      7 C6          2.1780    1.3940    1.3430 c3        1 BAR     -0.062400
      8 C7          0.9610    2.1440    1.8820 c3        1 BAR      0.034100
      9 C8          3.4800   -0.7530    1.1880 c         1 BAR      0.921600
     10 C9          0.2370    2.9860    0.8010 c         1 BAR      0.900600
     11 O1         -1.8600   -1.2140    1.3540 oh        1 BAR     -0.632800
     12 O2         -0.9930    2.8200    0.5550 o         1 BAR     -0.859800
     13 O3          0.9260    3.8870    0.2330 o         1 BAR     -0.859800
     14 O4          4.1220   -0.7840    2.2790 o         1 BAR     -0.859800
     15 O5          3.9490   -1.2180    0.1080 o         1 BAR     -0.859800
     16 O'          0.0450    1.3940    2.6840 os        1 BAR     -0.425600
     17 H'         -0.5640   -0.8570   -0.9920 ha        1 BAR      0.082000
     18 H1          1.9450   -0.6730   -0.9360 ha        1 BAR      0.138000
     19 H31         1.1390   -1.7770    2.2830 hc        1 BAR      0.044200
     20 H32         1.8240   -0.4550    3.3230 hc        1 BAR      0.044200
     21 H4         -1.4150    0.7710    0.8450 h1        1 BAR      0.120700
     22 H5         -0.7210   -0.3690    3.2540 h1        1 BAR      0.040700
     23 H61         3.0380    1.5790    2.0430 hc        1 BAR      0.051200
     24 H62         2.4470    1.8440    0.3510 hc        1 BAR      0.051200
     25 H7          1.3410    2.9050    2.6340 h1        1 BAR      0.027700
     26 HO1        -2.2460   -1.4400    0.5030 ho        1 BAR      0.372000
@<TRIPOS>BOND
     1    1    2 2   
     2    1    5 1   
     3    1   17 1   
     4    2    3 1   
     5    2   18 1   
     6    3    4 1   
     7    3    7 1   
     8    3    9 1   
     9    4    6 1   
    10    4   19 1   
    11    4   20 1   
    12    5    6 1   
    13    5   11 1   
    14    5   21 1   
    15    6   16 1   
    16    6   22 1   
    17    7    8 1   
    18    7   23 1   
    19    7   24 1   
    20    8   10 1   
    21    8   16 1   
    22    8   25 1   
    23    9   14 1   
    24    9   15 1   
    25   10   12 1   
    26   10   13 1   
    27   11   26 1   
@<TRIPOS>SUBSTRUCTURE
     1 BAR         1 TEMP              0 ****  ****    0 ROOT
