@<TRIPOS>MOLECULE
BAS
   25    25     1     0     0
SMALL
bcc


@<TRIPOS>ATOM
      1 C1           0.0000     0.0000     0.0000 c          1 BAS       0.618900
      2 O1           1.2120     0.0000     0.0000 o          1 BAS      -0.655100
      3 N2          -0.6730     0.0000     1.1680 ns         1 BAS      -0.215900
      4 C3           0.0570     0.0030     2.4350 c3         1 BAS       0.072000
      5 C31          0.3140    -1.4390     2.8790 c3         1 BAS      -0.040400
      6 C32          1.1410    -2.1610     1.8130 c3         1 BAS      -0.010100
      7 C4          -0.7570     0.7120     3.4850 ca         1 BAS      -0.112300
      8 C5          -0.2500     1.8380     4.1080 ca         1 BAS      -0.091000
      9 C6          -0.9980     2.4900     5.0710 ca         1 BAS      -0.098500
     10 C7          -2.2520     2.0170     5.4100 ca         1 BAS      -0.096000
     11 C8          -2.7580     0.8930     4.7860 ca         1 BAS      -0.098500
     12 C9          -2.0130     0.2440     3.8200 ca         1 BAS      -0.091000
     13 HC11        -0.5410     0.0470    -0.9370 h5         1 BAS      -0.020800
     14 HN2         -1.6740     0.0160     1.1680 hn         1 BAS       0.177500
     15 HC3          1.0030     0.5140     2.3060 h1         1 BAS       0.064700
     16 H311        -0.6320    -1.9510     3.0100 hc         1 BAS       0.018200
     17 H312         0.8560    -1.4370     3.8170 hc         1 BAS       0.018200
     18 H321         1.4780    -3.1140     2.2020 hc         1 BAS       0.011367
     19 H322         2.0000    -1.5550     1.5510 hc         1 BAS       0.011367
     20 H323         0.5320    -2.3250     0.9330 hc         1 BAS       0.011367
     21 HC5          0.7320     2.2080     3.8420 ha         1 BAS       0.108000
     22 HC6         -0.6010     3.3710     5.5600 ha         1 BAS       0.104000
     23 HC7         -2.8370     2.5270     6.1660 ha         1 BAS       0.103000
     24 HC8         -3.7420     0.5240     5.0500 ha         1 BAS       0.104000
     25 HC9         -2.4100    -0.6370     3.3310 ha         1 BAS       0.108000
@<TRIPOS>BOND
     1     1     2 2   
     2     1     3 1   
     3     1    13 1   
     4     3     4 1   
     5     3    14 1   
     6     4     5 1   
     7     4     7 1   
     8     4    15 1   
     9     5     6 1   
    10     5    16 1   
    11     5    17 1   
    12     6    18 1   
    13     6    19 1   
    14     6    20 1   
    15     7     8 ar  
    16     7    12 ar  
    17     8     9 ar  
    18     8    21 1   
    19     9    10 ar  
    20     9    22 1   
    21    10    11 ar  
    22    10    23 1   
    23    11    12 ar  
    24    11    24 1   
    25    12    25 1   
@<TRIPOS>SUBSTRUCTURE
     1 BAS         1 TEMP              0 ****  ****    0 ROOT
