@<TRIPOS>MOLECULE
molecule
   63    64     1     0     0
SMALL
bcc


@<TRIPOS>ATOM
      1 C1           1.5070     0.0000     0.0000 c3         1 BAT      -0.104700
      2 C2           0.0000     0.0000     0.0000 c          1 BAT       0.677100
      3 C3           2.0170     0.0000     1.4410 c3         1 BAT      -0.014300
      4 C4           2.2800     1.3100     3.8320 cc         1 BAT       0.094800
      5 C5           2.2970     2.1460     4.9100 cd         1 BAT      -0.164000
      6 C6           2.8970     1.7130     6.0790 cd         1 BAT      -0.155000
      7 C7           3.4570     0.4820     6.1130 cc         1 BAT      -0.058100
      8 C8           2.0170    -1.2490    -0.7210 c3         1 BAT      -0.132700
      9 C9           1.5060    -1.2500    -2.1630 c3         1 BAT      -0.067400
     10 C10          0.1230    -1.9000    -2.2150 c3         1 BAT      -0.091700
     11 C11         -0.3680    -1.9420    -3.6640 c3         1 BAT      -0.087100
     12 C12          0.2090    -3.3250    -1.6650 c3         1 BAT      -0.087100
     13 C13          3.5220    -1.2490    -0.7210 c          1 BAT       0.660100
     14 C14          5.6560    -2.3890    -0.4230 c3         1 BAT       0.046700
     15 C15          6.0200    -2.8670    -1.8050 c          1 BAT       0.647100
     16 C16          5.5080    -4.1030    -3.8420 c3         1 BAT       0.102300
     17 C17          6.2240    -3.3570     0.6170 c3         1 BAT      -0.043100
     18 C18          5.8580    -2.8800     1.9980 ca         1 BAT      -0.087300
     19 C19          4.6810    -3.3020     2.5870 ca         1 BAT      -0.123500
     20 C20          4.3460    -2.8650     3.8550 ca         1 BAT      -0.118500
     21 C21          5.1890    -2.0040     4.5340 ca         1 BAT      -0.124000
     22 C22          6.3660    -1.5830     3.9450 ca         1 BAT      -0.118500
     23 C23          6.7030    -2.0250     2.6800 ca         1 BAT      -0.123500
     24 N1          -0.6750     0.9900    -0.6170 ns         1 BAT      -0.465400
     25 N2           4.1970    -2.3340    -0.2950 ns         1 BAT      -0.587900
     26 O1          -0.6060    -0.8910     0.5560 o          1 BAT      -0.577100
     27 O2          -2.0900     0.9670    -0.6570 oh         1 BAT      -0.361100
     28 O3           4.1290    -0.2720    -1.1050 o          1 BAT      -0.592100
     29 O4           7.0420    -2.4780    -2.3300 o          1 BAT      -0.592100
     30 S1           1.5950     1.5780     2.2310 ss         1 BAT      -0.170000
     31 S2           3.1400    -0.1200     4.4630 ss         1 BAT      -0.197800
     32 H1           1.8680     0.8850    -0.5110 hc         1 BAT       0.084700
     33 H31          1.5550    -0.8130     1.9880 h1         1 BAT       0.088700
     34 H32          3.0930    -0.1290     1.4430 h1         1 BAT       0.088700
     35 H5           1.8410     3.1270     4.8550 ha         1 BAT       0.147000
     36 H6           2.9240     2.3530     6.9530 ha         1 BAT       0.143000
     37 H7           3.9650    -0.0120     6.9320 h4         1 BAT       0.184000
     38 H8           1.6560    -2.1330    -0.2100 hc         1 BAT       0.080700
     39 H91          1.4390    -0.2300    -2.5230 hc         1 BAT       0.054200
     40 H92          2.1920    -1.8090    -2.7880 hc         1 BAT       0.054200
     41 H10         -0.5700    -1.3230    -1.6150 hc         1 BAT       0.078700
     42 H111        -1.3880    -2.3050    -3.6890 hc         1 BAT       0.034867
     43 H112        -0.3290    -0.9450    -4.0870 hc         1 BAT       0.034867
     44 H113         0.2660    -2.6040    -4.2410 hc         1 BAT       0.034867
     45 H121        -0.5710    -3.9310    -2.1090 hc         1 BAT       0.034867
     46 H122         1.1770    -3.7480    -1.9060 hc         1 BAT       0.034867
     47 H123         0.0820    -3.3050    -0.5890 hc         1 BAT       0.034867
     48 H14          6.0700    -1.4010    -0.2610 h1         1 BAT       0.121700
     49 H161         5.5410    -3.2140    -4.4600 h1         1 BAT       0.043367
     50 H162         4.7350    -4.7680    -4.2070 h1         1 BAT       0.043367
     51 H163         6.4660    -4.6060    -3.8810 h1         1 BAT       0.043367
     52 H171         5.8100    -4.3450     0.4550 hc         1 BAT       0.064200
     53 H172         7.3020    -3.3970     0.5220 hc         1 BAT       0.064200
     54 H19          4.0210    -3.9770     2.0550 ha         1 BAT       0.128500
     55 H20          3.4230    -3.1960     4.3160 ha         1 BAT       0.135500
     56 H21          4.9260    -1.6590     5.5260 ha         1 BAT       0.130000
     57 H22          7.0280    -0.9100     4.4780 ha         1 BAT       0.135500
     58 H23          7.6260    -1.6940     2.2200 ha         1 BAT       0.128500
     59 HN1         -0.1760     1.7590    -1.0200 hn         1 BAT       0.326500
     60 HN2          3.6990    -3.1140     0.0880 hn         1 BAT       0.315500
     61 HN3          4.4330    -4.1360    -1.9820 hn         1 BAT       0.309500
     62 HO2         -2.4140     1.8390    -0.8060 ho         1 BAT       0.400000
     63 N3           5.2120    -3.7240    -2.4570 ns         1 BAT      -0.585900
@<TRIPOS>BOND
     1     1     2 1
     2     1     3 1
     3     1     8 1
     4     1    32 1
     5     2    24 1
     6     2    26 2
     7     3    30 1
     8     3    33 1
     9     3    34 1
    10     4     5 2
    11     4    30 1
    12     4    31 1
    13     5     6 1
    14     5    35 1
    15     6     7 2
    16     6    36 1
    17     7    31 1
    18     7    37 1
    19     8     9 1
    20     8    13 1
    21     8    38 1
    22     9    10 1
    23     9    39 1
    24     9    40 1
    25    10    11 1
    26    10    12 1
    27    10    41 1
    28    11    42 1
    29    11    43 1
    30    11    44 1
    31    12    45 1
    32    12    46 1
    33    12    47 1
    34    13    25 1
    35    13    28 2
    36    14    15 1
    37    14    17 1
    38    14    25 1
    39    14    48 1
    40    15    63 1
    41    15    29 2
    42    16    63 1
    43    16    49 1
    44    16    50 1
    45    16    51 1
    46    17    18 1
    47    17    52 1
    48    17    53 1
    49    18    19 ar
    50    18    23 ar
    51    19    20 ar
    52    19    54 1
    53    20    21 ar
    54    20    55 1
    55    21    22 ar
    56    21    56 1
    57    22    23 ar
    58    22    57 1
    59    23    58 1
    60    24    27 1
    61    24    59 1
    62    25    60 1
    63    63    61 1
    64    27    62 1
@<TRIPOS>SUBSTRUCTURE
     1 BAT         1 TEMP              0 ****  ****    0 ROOT
