@<TRIPOS>MOLECULE
BAU
   36    37     1     0     0
SMALL
bcc


@<TRIPOS>ATOM
      1 OAC        -0.0510    0.3160   -0.0980 oh        1 BAU     -0.593800
      2 CAJ         1.3560    0.2400   -0.0660 c3        1 BAU      0.135400
      3 CAK         1.8880    0.2580    1.3650 c3        1 BAU      0.072400
      4 OAO         1.4780   -0.9780    1.9490 os        1 BAU     -0.425600
      5 CAM         2.0060   -1.2380    3.2400 c3        1 BAU      0.294800
      6 NAT         1.3910   -0.4610    4.3010 n         1 BAU     -0.401000
      7 CAS         0.2210   -0.9670    4.9350 c         1 BAU      0.809500
      8 OAB        -0.1800   -2.1280    4.7150 o         1 BAU     -0.630500
      9 NAN        -0.4510   -0.1410    5.8480 n         1 BAU     -0.583500
     10 CAR        -0.0440    1.1710    6.1450 c         1 BAU      0.719700
     11 OAA        -0.7160    1.8330    6.9540 o         1 BAU     -0.611500
     12 CAI         1.8030    0.8380    4.5650 cc        1 BAU      0.038600
     13 CAQ         1.1690    1.6510    5.4550 cd        1 BAU     -0.242400
     14 CAL         1.6550    3.0190    5.7720 c3        1 BAU      0.025100
     15 CG          1.1430    4.0460    4.8170 ca        1 BAU     -0.088300
     16 CD2        -0.2030    4.4290    4.8610 ca        1 BAU     -0.125500
     17 CE2        -0.6830    5.4000    3.9840 ca        1 BAU     -0.128500
     18 CZ          0.1760    5.9970    3.0620 ca        1 BAU     -0.127000
     19 CE1         1.5190    5.6230    3.0190 ca        1 BAU     -0.128500
     20 CD1         2.0020    4.6500    3.8930 ca        1 BAU     -0.125500
     21 HAC        -0.3880   -0.4430    0.3970 ho        1 BAU      0.416000
     22 HAJ1        1.7100   -0.6850   -0.5940 h1        1 BAU      0.056200
     23 HAJ2        1.7120    1.1550   -0.6100 h1        1 BAU      0.056200
     24 HAK1        3.0060    0.3330    1.3700 h1        1 BAU      0.042700
     25 HAK2        1.4440    1.1130    1.9390 h1        1 BAU      0.042700
     26 HAM1        3.1160   -1.0390    3.2590 h2        1 BAU      0.089700
     27 HAM2        1.7660   -2.3320    3.4050 h2        1 BAU      0.089700
     28 HAN        -1.2680   -0.5160    6.2830 hn        1 BAU      0.354500
     29 HAI         2.7050    1.1690    4.0160 h4        1 BAU      0.161000
     30 HAL1        1.3150    3.2900    6.8120 hc        1 BAU      0.067200
     31 HAL2        2.7790    3.0240    5.7720 hc        1 BAU      0.067200
     32 HD2        -0.8750    3.9540    5.5950 ha        1 BAU      0.138000
     33 HE2        -1.7420    5.6950    4.0220 ha        1 BAU      0.132500
     34 HZ         -0.2040    6.7640    2.3710 ha        1 BAU      0.132000
     35 HE1         2.1990    6.0960    2.2960 ha        1 BAU      0.132500
     36 HD1         3.0640    4.3640    3.8600 ha        1 BAU      0.138000
@<TRIPOS>BOND
     1    1    2 1
     2    1   21 1
     3    2    3 1
     4    2   22 1
     5    2   23 1
     6    3    4 1
     7    3   24 1
     8    3   25 1
     9    4    5 1
    10    5    6 1
    11    5   26 1
    12    5   27 1
    13    6    7 1
    14    6   12 1
    15    7    8 2
    16    7    9 1
    17    9   10 1
    18    9   28 1
    19   10   11 2
    20   10   13 1
    21   12   13 2
    22   12   29 1
    23   13   14 1
    24   14   15 1
    25   14   30 1
    26   14   31 1
    27   15   16 ar
    28   15   20 ar
    29   16   17 ar
    30   16   32 1
    31   17   18 ar
    32   17   33 1
    33   18   19 ar
    34   18   34 1
    35   19   20 ar
    36   19   35 1
    37   20   36 1
@<TRIPOS>SUBSTRUCTURE
     1 BAU         1 TEMP              0 ****  ****    0 ROOT
