@<TRIPOS>MOLECULE
molecule
   84    85     1     0     0
SMALL
bcc


@<TRIPOS>ATOM
      1 N1           0.0000     0.0000     0.0000 n          1 BAV      -0.502800
      2 C2           1.4770     0.0000     0.0000 c3         1 BAV       0.042700
      3 C4           2.0140     0.0000     1.4070 c          1 BAV       0.647100
      4 N5           1.7120     1.0140     2.2570 ns         1 BAV      -0.565900
      5 C7           2.1770     0.9340     3.6560 c3         1 BAV       0.123700
      6 C9           1.7640     2.1960     4.4020 c3         1 BAV      -0.085400
      7 C12          0.3280     2.1730     4.9170 c3         1 BAV      -0.063700
      8 C14         -0.0200     3.5700     5.4480 c3         1 BAV      -0.081400
      9 C17         -1.5190     3.7280     5.6750 c3         1 BAV      -0.081400
     10 C20         -2.1330     4.5830     4.5650 c3         1 BAV      -0.082400
     11 C23         -3.2770     3.8310     3.8850 c3         1 BAV      -0.084400
     12 C26         -3.1570     3.9800     2.3670 c3         1 BAV      -0.082400
     13 C29         -3.4440     2.6420     1.6850 c3         1 BAV      -0.082400
     14 C32         -2.7120     2.5810     0.3430 c3         1 BAV      -0.083400
     15 C35         -2.1710     1.1700     0.1080 c3         1 BAV      -0.163400
     16 C38         -0.6630     1.1720     0.2320 c          1 BAV       0.675100
     17 O39         -0.1090     2.2030     0.5390 o          1 BAV      -0.613100
     18 C40         -0.6450     1.8120     3.7980 c3         1 BAV      -0.101100
     19 C44          1.6740    -0.3230     4.3560 c3         1 BAV       0.122100
     20 O46          0.2460    -0.3490     4.3210 oh         1 BAV      -0.588800
     21 C48          2.1490    -0.3220     5.8100 c3         1 BAV       0.128800
     22 N51          1.7760    -1.5910     6.4480 n7         1 BAV      -0.816200
     23 C53          2.2170    -1.6260     7.8490 c3         1 BAV       0.206100
     24 C56          1.8180    -2.9410     8.4690 ca         1 BAV      -0.085300
     25 C57          2.6780    -4.0210     8.4130 ca         1 BAV      -0.123000
     26 C59          2.3110    -5.2270     8.9810 ca         1 BAV      -0.077300
     27 C60          1.0850    -5.3510     9.6060 ca         1 BAV      -0.122000
     28 C62          0.2250    -4.2700     9.6640 ca         1 BAV      -0.129000
     29 C64          0.5930    -3.0640     9.0990 ca         1 BAV      -0.109000
     30 C66          3.2480    -6.4050     8.9200 c3         1 BAV      -0.030400
     31 C68          3.6020    -6.8510    10.3390 c3         1 BAV      -0.085100
     32 C72          2.5700    -7.5580     8.1770 c3         1 BAV      -0.085100
     33 O76          2.7420    -0.9140     1.7530 o          1 BAV      -0.632100
     34 C77          2.0570     1.1570    -0.8110 c3         1 BAV      -0.097100
     35 C81         -0.7380    -1.2550    -0.2560 c3         1 BAV       0.105300
     36 H2           1.8010    -0.9200    -0.4710 h1         1 BAV       0.081700
     37 HN5          1.0430     1.7090     1.9910 hn         1 BAV       0.357500
     38 H7           3.2590     0.8950     3.6440 h1         1 BAV       0.062700
     39 H9           2.4300     2.3300     5.2460 hc         1 BAV       0.047200
     40 H9A          1.8780     3.0420     3.7350 hc         1 BAV       0.047200
     41 H12          0.2420     1.4500     5.7180 hc         1 BAV       0.065700
     42 H14          0.3090     4.3130     4.7310 hc         1 BAV       0.035700
     43 H14A         0.4980     3.7310     6.3860 hc         1 BAV       0.035700
     44 H17         -1.9870     2.7510     5.6750 hc         1 BAV       0.043200
     45 H17A        -1.6890     4.2070     6.6310 hc         1 BAV       0.043200
     46 H20         -1.3710     4.8160     3.8310 hc         1 BAV       0.041700
     47 H20A        -2.5130     5.5030     4.9920 hc         1 BAV       0.041700
     48 H23         -3.2280     2.7820     4.1490 hc         1 BAV       0.041700
     49 H23A        -4.2240     4.2420     4.2130 hc         1 BAV       0.041700
     50 H26         -2.1540     4.3040     2.1160 hc         1 BAV       0.045200
     51 H26A        -3.8700     4.7190     2.0220 hc         1 BAV       0.045200
     52 H29         -4.5100     2.5440     1.5190 hc         1 BAV       0.041200
     53 H29A        -3.1020     1.8340     2.3200 hc         1 BAV       0.041200
     54 H32         -3.4000     2.8390    -0.4530 hc         1 BAV       0.060700
     55 H32A        -1.8890     3.2850     0.3500 hc         1 BAV       0.060700
     56 H35         -2.4490     0.8380    -0.8840 hc         1 BAV       0.063200
     57 H35A        -2.5910     0.4950     0.8450 hc         1 BAV       0.063200
     58 H40         -1.6090     1.5620     4.2250 hc         1 BAV       0.044700
     59 H40A        -0.2630     0.9600     3.2480 hc         1 BAV       0.044700
     60 H40B        -0.7540     2.6550     3.1270 hc         1 BAV       0.044700
     61 H44          2.0630    -1.1990     3.8490 h1         1 BAV       0.066700
     62 HO46        -0.0510    -1.2430     4.2720 ho         1 BAV       0.397000
     63 H48          1.6840     0.5000     6.3410 h1         1 BAV       0.042700
     64 H48A         3.2260    -0.2070     5.8380 h1         1 BAV       0.042700
     65 HN51         2.1920    -2.3520     5.9480 hn         1 BAV       0.354800
     66 H53          1.7530    -0.8140     8.3940 h1         1 BAV       0.038200
     67 H53A         3.2950    -1.5200     7.8910 h1         1 BAV       0.038200
     68 H57          3.6400    -3.9240     7.9230 ha         1 BAV       0.128000
     69 H60          0.7970    -6.2960    10.0510 ha         1 BAV       0.130000
     70 H62         -0.7350    -4.3680    10.1560 ha         1 BAV       0.129000
     71 H64         -0.0810    -2.2170     9.1440 ha         1 BAV       0.135000
     72 H66          4.1520    -6.1200     8.3960 hc         1 BAV       0.053700
     73 H68          4.4440    -7.5320    10.3040 hc         1 BAV       0.036033
     74 H68A         2.7500    -7.3520    10.7840 hc         1 BAV       0.036033
     75 H68B         3.8630    -5.9850    10.9350 hc         1 BAV       0.036033
     76 H72          1.7840    -7.9740     8.7950 hc         1 BAV       0.036033
     77 H72A         3.3020    -8.3270     7.9580 hc         1 BAV       0.036033
     78 H72B         2.1450    -7.1910     7.2510 hc         1 BAV       0.036033
     79 H77          2.2980     1.9780    -0.1470 hc         1 BAV       0.053033
     80 H77A         1.3290     1.4860    -1.5420 hc         1 BAV       0.053033
     81 H77B         2.9560     0.8270    -1.3180 hc         1 BAV       0.053033
     82 H81         -1.3930    -1.4660     0.5810 h1         1 BAV       0.043700
     83 H81A        -1.3270    -1.1500    -1.1580 h1         1 BAV       0.043700
     84 H81B        -0.0340    -2.0700    -0.3770 h1         1 BAV       0.043700
@<TRIPOS>BOND
     1     1     2 1
     2     1    16 1
     3     1    35 1
     4     2     3 1
     5     2    34 1
     6     3     4 1
     7     3    33 2
     8     4     5 1
     9     5     6 1
    10     5    19 1
    11     6     7 1
    12     7     8 1
    13     7    18 1
    14     8     9 1
    15     9    10 1
    16    10    11 1
    17    11    12 1
    18    12    13 1
    19    13    14 1
    20    14    15 1
    21    15    16 1
    22    16    17 2
    23    19    20 1
    24    19    21 1
    25    21    22 1
    26    22    23 1
    27    23    24 1
    28    24    25 ar
    29    24    29 ar
    30    25    26 ar
    31    26    27 ar
    32    26    30 1
    33    27    28 ar
    34    28    29 ar
    35    30    31 1
    36    30    32 1
    37     2    36 1
    38     4    37 1
    39     5    38 1
    40     6    39 1
    41     6    40 1
    42     7    41 1
    43     8    42 1
    44     8    43 1
    45     9    44 1
    46     9    45 1
    47    10    46 1
    48    10    47 1
    49    11    48 1
    50    11    49 1
    51    12    50 1
    52    12    51 1
    53    13    52 1
    54    13    53 1
    55    14    54 1
    56    14    55 1
    57    15    56 1
    58    15    57 1
    59    18    58 1
    60    18    59 1
    61    18    60 1
    62    19    61 1
    63    20    62 1
    64    21    63 1
    65    21    64 1
    66    22    65 1
    67    23    66 1
    68    23    67 1
    69    25    68 1
    70    27    69 1
    71    28    70 1
    72    29    71 1
    73    30    72 1
    74    31    73 1
    75    31    74 1
    76    31    75 1
    77    32    76 1
    78    32    77 1
    79    32    78 1
    80    34    79 1
    81    34    80 1
    82    34    81 1
    83    35    82 1
    84    35    83 1
    85    35    84 1
@<TRIPOS>SUBSTRUCTURE
     1 BAV         1 TEMP              0 ****  ****    0 ROOT
