@<TRIPOS>MOLECULE
molecule
   40    42     1     0     0
SMALL
bcc


@<TRIPOS>ATOM
      1 C1           0.0000     0.0000     0.0000 ca         1 BAW       0.151100
      2 C2           1.3870     0.0000     0.0000 ca         1 BAW      -0.249000
      3 C3           2.0800     0.0000     1.1990 ca         1 BAW       0.163100
      4 C10         -2.7160     1.4260     0.9420 c3         1 BAW      -0.086100
      5 C11          2.1060     0.0010     3.6930 cc         1 BAW       0.000700
      6 C14          3.4130     0.5940     5.4270 cd         1 BAW       0.362600
      7 C15          2.9250     1.0140     4.1760 cd         1 BAW      -0.237300
      8 C16          3.2290     2.2960     3.4990 ca         1 BAW      -0.034000
      9 C19          3.7980     4.6950     2.2340 ca         1 BAW      -0.105000
     10 C20          4.6010     3.5900     2.0120 ca         1 BAW      -0.152000
     11 C21          4.3220     2.3930     2.6390 ca         1 BAW      -0.073000
     12 C4           1.3750     0.0000     2.4100 ca         1 BAW      -0.073000
     13 C5          -0.0210     0.0010     2.3990 ca         1 BAW      -0.066000
     14 C6          -0.7000     0.0050     1.2000 ca         1 BAW      -0.117300
     15 O7          -0.6760    -0.0000    -1.1780 oh         1 BAW      -0.504100
     16 O8           3.4380    -0.0000     1.2000 oh         1 BAW      -0.501100
     17 N12          2.1100    -0.9940     4.6240 na         1 BAW      -0.039600
     18 N13          2.9280    -0.5910     5.6860 nc         1 BAW      -0.514800
     19 C17          2.4200     3.4120     3.7160 ca         1 BAW       0.142900
     20 C18          2.7080     4.6060     3.0810 ca         1 BAW      -0.175000
     21 F22          1.3550     3.3270     4.5430 f          1 BAW      -0.138900
     22 C23          4.3420     1.3790     6.3170 c3         1 BAW      -0.110400
     23 H1           1.9290    -0.0020    -0.9380 ha         1 BAW       0.144000
     24 H2          -2.5610    -0.3430     2.1530 hc         1 BAW       0.048200
     25 H3          -2.5770    -0.6520     0.4110 hc         1 BAW       0.048200
     26 H4          -2.0720     1.9210     0.2250 hc         1 BAW       0.039367
     27 H5          -3.7330     1.4190     0.5690 hc         1 BAW       0.039367
     28 H6          -2.6810     1.9580     1.8850 hc         1 BAW       0.039367
     29 H7           4.0210     5.6320     1.7390 ha         1 BAW       0.131000
     30 H8           5.4520     3.6650     1.3460 ha         1 BAW       0.131000
     31 H9           4.9530     1.5290     2.4640 ha         1 BAW       0.147000
     32 H10         -0.5710     0.0030     3.3320 ha         1 BAW       0.149000
     33 H11         -0.3430    -0.6860    -1.7320 ho         1 BAW       0.421000
     34 H12          3.7530    -0.7380     0.7040 ho         1 BAW       0.420000
     35 H13          1.6120    -1.8600     4.5620 hn         1 BAW       0.329700
     36 H14          2.0820     5.4740     3.2500 ha         1 BAW       0.142000
     37 H15          5.2840     1.5350     5.8070 hc         1 BAW       0.052033
     38 H16          4.5140     0.8280     7.2340 hc         1 BAW       0.052033
     39 H17          3.8940     2.3370     6.5510 hc         1 BAW       0.052033
     40 C9          -2.2070     0.0050     1.1890 c3         1 BAW      -0.026100
@<TRIPOS>BOND
     1    22     6 1
     2    18     6 2
     3    18    17 1
     4     6     7 1
     5    17     5 1
     6    21    19 1
     7     7     5 2
     8     7     8 1
     9     5    12 1
    10    19     8 ar
    11    19    20 ar
    12     8    11 ar
    13    12    13 ar
    14    12     3 ar
    15    20     9 ar
    16    16     3 1
    17    13    14 ar
    18     3     2 ar
    19    11    10 ar
    20     4    40 1
    21    14    40 1
    22    14     1 ar
    23     9    10 ar
    24     2     1 ar
    25     1    15 1
    26     2    23 1
    27    40    24 1
    28    40    25 1
    29     4    26 1
    30     4    27 1
    31     4    28 1
    32     9    29 1
    33    10    30 1
    34    11    31 1
    35    13    32 1
    36    15    33 1
    37    16    34 1
    38    17    35 1
    39    20    36 1
    40    22    37 1
    41    22    38 1
    42    22    39 1
@<TRIPOS>SUBSTRUCTURE
     1 BAW         1 TEMP              0 ****  ****    0 ROOT
