@<TRIPOS>MOLECULE
BAX
   48    50     1     0     0
SMALL
bcc


@<TRIPOS>ATOM
      1 C1           0.0000     0.0000     0.0000 ca         1 BAX      -0.077000
      2 C2           1.3890     0.0000     0.0000 ca         1 BAX      -0.077400
      3 C3           2.0800     0.0000     1.2040 ca         1 BAX      -0.058000
      4 C4           1.3850    -0.0040     2.3970 ca         1 BAX      -0.084000
      5 C13          3.2640    -0.6490    -1.3130 c          1 BAX       0.554100
      6 C16          5.2560    -1.1560    -2.5120 ca         1 BAX      -0.077400
      7 C17          6.2830    -0.5470    -3.2200 ca         1 BAX      -0.100000
      8 C18          7.5240    -1.1500    -3.2930 ca         1 BAX      -0.097500
      9 C19          7.7440    -2.3630    -2.6590 ca         1 BAX       0.064100
     10 C20          6.7160    -2.9750    -1.9560 ca         1 BAX      -0.097500
     11 C21          5.4770    -2.3700    -1.8780 ca         1 BAX      -0.100000
     12 O22          8.9660    -2.9550    -2.7310 os         1 BAX      -0.191200
     13 C24         10.9020    -3.1190    -1.3380 ca         1 BAX      -0.246300
     14 C25         11.5700    -2.7160    -0.1980 ca         1 BAX       0.429200
     15 C27          9.8480    -1.2930     0.3930 ca         1 BAX       0.357800
     16 C28          9.1150    -1.6500    -0.7350 ca         1 BAX      -0.258300
     17 N30         10.0000     0.0450     2.4400 ns         1 BAX      -0.173900
     18 C31          9.4530     1.0250     3.3820 c3         1 BAX       0.082300
     19 C5           0.0010    -0.0090     2.3930 ca         1 BAX      -0.005600
     20 C6          -0.6900    -0.0110     1.1950 ca         1 BAX      -0.191300
     21 C7          -2.1970    -0.0150     1.1960 c3         1 BAX       0.645200
     22 F8          -2.6590    -1.1600     1.8530 f          1 BAX      -0.206300
     23 F9          -2.6680     1.1220     1.8570 f          1 BAX      -0.206300
     24 F10         -2.6630    -0.0150    -0.1230 f          1 BAX      -0.206300
     25 Cl11        -0.8690    -0.0140     3.8960 cl         1 BAX       0.007600
     26 N12          2.0900     0.0050    -1.2110 ns         1 BAX      -0.051100
     27 N14          3.9970    -0.5460    -2.4380 ns         1 BAX      -0.045100
     28 O15          3.6610    -1.3320    -0.3880 o          1 BAX      -0.677100
     29 C23          9.6490    -2.5810    -1.6190 ca         1 BAX       0.147100
     30 N26         11.0410    -1.8300     0.6200 nb         1 BAX      -0.610000
     31 O32          8.2050     0.1930     1.1420 o          1 BAX      -0.651100
     32 H1          -0.5420    -0.0010    -0.9380 ha         1 BAX       0.124000
     33 H3           3.1630     0.0020     1.2070 ha         1 BAX       0.151000
     34 H4           1.9240    -0.0030     3.3370 ha         1 BAX       0.124000
     35 H17          6.1120     0.4010    -3.7160 ha         1 BAX       0.130000
     36 H18          8.3260    -0.6740    -3.8440 ha         1 BAX       0.118500
     37 H20          6.8880    -3.9230    -1.4600 ha         1 BAX       0.118500
     38 H21          4.6750    -2.8470    -1.3270 ha         1 BAX       0.130000
     39 H24         11.3470    -3.8500    -2.0030 ha         1 BAX       0.126000
     40 H25         12.5460    -3.1310     0.0240 h4         1 BAX      -0.018900
     41 H28          8.1410    -1.2120    -0.9190 ha         1 BAX       0.171000
     42 H30         10.8930    -0.3710     2.6130 hn         1 BAX       0.189500
     43 H311        10.1560     1.1790     4.1920 h1         1 BAX       0.008700
     44 H312         9.2820     1.9630     2.8690 h1         1 BAX       0.008700
     45 H313         8.5160     0.6560     3.7830 h1         1 BAX       0.008700
     46 H12          1.7300     0.5110    -1.9960 hn         1 BAX       0.164500
     47 H14          3.6310    -0.0580    -3.2310 hn         1 BAX       0.162500
     48 C29          9.2940    -0.3040     1.3460 c          1 BAX       0.480600
@<TRIPOS>BOND
     1     1     2 ar  
     2     1    20 ar  
     3     1    32 1   
     4     2     3 ar  
     5     2    26 1   
     6     3     4 ar  
     7     3    33 1   
     8     4    19 ar  
     9     4    34 1   
    10     5    26 1   
    11     5    27 1   
    12     5    28 2   
    13     6     7 ar  
    14     6    11 ar  
    15     6    27 1   
    16     7     8 ar  
    17     7    35 1   
    18     8     9 ar  
    19     8    36 1   
    20     9    10 ar  
    21     9    12 1   
    22    10    11 ar  
    23    10    37 1   
    24    11    38 1   
    25    12    29 1   
    26    13    14 ar  
    27    13    29 ar  
    28    13    39 1   
    29    14    30 ar  
    30    14    40 1   
    31    15    16 ar  
    32    15    30 ar  
    33    15    48 1   
    34    16    29 ar  
    35    16    41 1   
    36    17    18 1   
    37    17    42 1   
    38    17    48 1   
    39    18    43 1   
    40    18    44 1   
    41    18    45 1   
    42    19    20 ar  
    43    19    25 1   
    44    20    21 1   
    45    21    22 1   
    46    21    23 1   
    47    21    24 1   
    48    26    46 1   
    49    27    47 1   
    50    31    48 2   
@<TRIPOS>SUBSTRUCTURE
     1 BAX         1 TEMP              0 ****  ****    0 ROOT
