@<TRIPOS>MOLECULE
BB0
   31    32     1     0     0
SMALL
bcc


@<TRIPOS>ATOM
      1 NAB          0.0000     0.0000     0.0000 nh         1 BB0      -0.388000
      2 CAG          6.3680     0.0000     0.0000 ca         1 BB0      -0.223600
      3 CAH          5.9000     0.0000     1.3300 ca         1 BB0      -0.060000
      4 CAI          4.5710     0.0000     1.5970 ca         1 BB0      -0.123000
      5 CAJ          3.6380     0.0010     0.5430 ca         1 BB0       0.046000
      6 CAK          4.0950     0.0010    -0.8010 ca         1 BB0      -0.110000
      7 CAL          5.4720     0.0060    -1.0620 ca         1 BB0       0.015000
      8 CAM          2.2600     0.0010     0.8000 ca         1 BB0      -0.221000
      9 CAN          1.3710     0.0010    -0.2550 ca         1 BB0       0.093600
     10 CAO          1.8290     0.0010    -1.5780 ca         1 BB0      -0.173000
     11 CAP          3.1590     0.0010    -1.8540 ca         1 BB0      -0.028000
     12 CAQ         -0.4880    -0.0010     1.3810 c3         1 BB0       0.210600
     13 CAR         -0.9510     0.0060    -1.1140 c3         1 BB0       0.210600
     14 CAS          8.7900    -0.0030     0.8820 c3         1 BB0      -0.092100
     15 OAU          8.2200    -0.0010    -1.4070 o          1 BB0      -0.572100
     16 HAH          6.6100    -0.0000     2.1480 ha         1 BB0       0.104000
     17 HAI          4.2260     0.0000     2.6240 ha         1 BB0       0.107000
     18 HAL          5.8310     0.1560    -2.0730 ha         1 BB0       0.122000
     19 HAM          1.8980     0.1270     1.8130 ha         1 BB0       0.123000
     20 HAO          1.1140     0.0010    -2.3920 ha         1 BB0       0.115000
     21 HAP          3.4990     0.0010    -2.8820 ha         1 BB0       0.105000
     22 HAQ         -0.1630     0.9040     1.8790 h1         1 BB0       0.006200
     23 HAQA        -0.0930    -0.8640     1.9030 h1         1 BB0       0.006200
     24 HAQB        -1.5710    -0.0440     1.3810 h1         1 BB0       0.006200
     25 HAR         -0.7920     0.8900    -1.7200 h1         1 BB0       0.006200
     26 HARA        -0.8030    -0.8790    -1.7200 h1         1 BB0       0.006200
     27 HARB        -1.9620     0.0130    -0.7250 h1         1 BB0       0.006200
     28 HAS          8.6360     0.8820     1.4890 hc         1 BB0       0.024700
     29 HASA         9.8000    -0.0020     0.4920 hc         1 BB0       0.024700
     30 HASB         8.6380    -0.8870     1.4890 hc         1 BB0       0.024700
     31 CAF          7.8130    -0.0010    -0.2650 c          1 BB0       0.630700
@<TRIPOS>BOND
     1     1     9 1   
     2     1    12 1   
     3     1    13 1   
     4     2     3 ar  
     5     2     7 ar  
     6     2    31 1   
     7     3     4 ar  
     8     3    16 1   
     9     4     5 ar  
    10     4    17 1   
    11     5     6 ar  
    12     5     8 ar  
    13     6     7 ar  
    14     6    11 ar  
    15     7    18 1   
    16     8     9 ar  
    17     8    19 1   
    18     9    10 ar  
    19    10    11 ar  
    20    10    20 1   
    21    11    21 1   
    22    12    22 1   
    23    12    23 1   
    24    12    24 1   
    25    13    25 1   
    26    13    26 1   
    27    13    27 1   
    28    14    28 1   
    29    14    29 1   
    30    14    30 1   
    31    14    31 1   
    32    15    31 2   
@<TRIPOS>SUBSTRUCTURE
     1 BB0         1 TEMP              0 ****  ****    0 ROOT
