@<TRIPOS>MOLECULE
BB1
   54    53     1     0     0
SMALL
bcc


@<TRIPOS>ATOM
      1 C2           0.0000     0.0000     0.0000 c3         1 BB1       0.057000
      2 C3           1.5300     0.0000     0.0000 c3         1 BB1      -0.144700
      3 C4           2.0330     0.0000     1.4200 c          1 BB1       0.577100
      4 O3           2.7310     0.9090     1.8150 o          1 BB1      -0.646100
      5 N2           1.7070    -1.0090     2.2500 ns         1 BB1      -0.174900
      6 C5           2.1960    -1.0090     3.6310 c3         1 BB1      -0.061300
      7 C7           2.0400     1.2460    -0.7230 c3         1 BB1      -0.015400
      8 C8           3.5600     1.1640    -0.8730 c3         1 BB1      -0.047400
      9 C9           4.0560     2.3460    -1.7080 c3         1 BB1      -0.023400
     10 C10          5.5760     2.2630    -1.8570 c3         1 BB1       0.006900
     11 N1          -0.4890    -0.1290    -1.3740 n          1 BB1      -0.048300
     12 C1          -0.4130    -1.3160    -2.0080 c          1 BB1       0.612900
     13 O1          -0.8180    -1.4230    -3.1450 o          1 BB1      -0.624100
     14 O2          -1.0440     0.9920    -2.0380 oh         1 BB1      -0.431100
     15 C6           2.3630    -2.4280     4.1070 c          1 BB1       0.581100
     16 N3           3.3290    -2.7340     4.9940 n          1 BB1      -0.144800
     17 C16          3.4550    -4.1030     5.4990 c3         1 BB1       0.072800
     18 C15          4.2540    -1.6950     5.4560 c3         1 BB1       0.072800
     19 O4           1.6280    -3.2980     3.6880 o          1 BB1      -0.655100
     20 C11          1.1900    -0.2860     4.5280 c3         1 BB1      -0.070000
     21 C12         -0.1530    -1.0160     4.4790 c3         1 BB1      -0.011433
     22 C13          1.7090    -0.2700     5.9670 c3         1 BB1      -0.011433
     23 C14          1.0070     1.1510     4.0360 c3         1 BB1      -0.011433
     24 H21         -0.3610    -0.8330     0.5920 h1         1 BB1       0.031200
     25 H22         -0.3610     0.9280     0.4260 h1         1 BB1       0.031200
     26 H3           1.8900    -0.8850    -0.5100 hc         1 BB1       0.045700
     27 HN2          1.1660    -1.7800     1.9120 hn         1 BB1       0.197500
     28 H5           3.1510    -0.4990     3.6760 h1         1 BB1       0.077700
     29 H71          1.5840     1.3070    -1.7040 hc         1 BB1       0.032700
     30 H72          1.7810     2.1280    -0.1500 hc         1 BB1       0.032700
     31 H81          3.8240     0.2370    -1.3660 hc         1 BB1       0.027200
     32 H82          4.0210     1.1960     0.1070 hc         1 BB1       0.027200
     33 H91          3.7930     3.2730    -1.2140 hc         1 BB1       0.012700
     34 H92          3.5950     2.3150    -2.6870 hc         1 BB1       0.012700
     35 H101         5.8390     1.3450    -2.3700 hc         1 BB1      -0.000633
     36 H102         5.9300     3.1110    -2.4310 hc         1 BB1      -0.000633
     37 H103         6.0370     2.2730    -0.8770 hc         1 BB1      -0.000633
     38 H1          -0.0350    -2.1860    -1.4840 h5         1 BB1      -0.011800
     39 H2          -1.9830     0.9160    -2.0530 ho         1 BB1       0.396000
     40 H161         4.2770    -4.1540     6.2030 h1         1 BB1       0.017367
     41 H162         2.5360    -4.3900     5.9960 h1         1 BB1       0.017367
     42 H163         3.6450    -4.7760     4.6720 h1         1 BB1       0.017367
     43 H151         5.2670    -2.0790     5.4360 h1         1 BB1       0.017367
     44 H152         3.9970    -1.4060     6.4680 h1         1 BB1       0.017367
     45 H153         4.1820    -0.8320     4.8050 h1         1 BB1       0.017367
     46 H121        -0.8700    -0.4960     5.1030 hc         1 BB1       0.014256
     47 H122        -0.5140    -1.0400     3.4580 hc         1 BB1       0.014256
     48 H123        -0.0270    -2.0290     4.8420 hc         1 BB1       0.014256
     49 H131         1.0250     0.2920     6.5920 hc         1 BB1       0.014256
     50 H132         2.6870     0.1950     5.9930 hc         1 BB1       0.014256
     51 H133         1.7830    -1.2860     6.3360 hc         1 BB1       0.014256
     52 H141         0.4920     1.7300     4.7930 hc         1 BB1       0.014256
     53 H142         1.9770     1.5930     3.8420 hc         1 BB1       0.014256
     54 H143         0.4230     1.1490     3.1240 hc         1 BB1       0.014256
@<TRIPOS>BOND
     1     1     2 1   
     2     1    11 1   
     3     1    24 1   
     4     1    25 1   
     5     2     3 1   
     6     2     7 1   
     7     2    26 1   
     8     3     4 2   
     9     3     5 1   
    10     5     6 1   
    11     5    27 1   
    12     6    15 1   
    13     6    20 1   
    14     6    28 1   
    15     7     8 1   
    16     7    29 1   
    17     7    30 1   
    18     8     9 1   
    19     8    31 1   
    20     8    32 1   
    21     9    10 1   
    22     9    33 1   
    23     9    34 1   
    24    10    35 1   
    25    10    36 1   
    26    10    37 1   
    27    11    12 1   
    28    11    14 1   
    29    12    13 2   
    30    12    38 1   
    31    14    39 1   
    32    15    16 1   
    33    15    19 2   
    34    16    17 1   
    35    16    18 1   
    36    17    40 1   
    37    17    41 1   
    38    17    42 1   
    39    18    43 1   
    40    18    44 1   
    41    18    45 1   
    42    20    21 1   
    43    20    22 1   
    44    20    23 1   
    45    21    46 1   
    46    21    47 1   
    47    21    48 1   
    48    22    49 1   
    49    22    50 1   
    50    22    51 1   
    51    23    52 1   
    52    23    53 1   
    53    23    54 1   
@<TRIPOS>SUBSTRUCTURE
     1 BB1         1 TEMP              0 ****  ****    0 ROOT
