@<TRIPOS>MOLECULE
molecule
   62    62     1     0     0
SMALL
bcc


@<TRIPOS>ATOM
      1 C5           0.0000     0.0000     0.0000 c3         1 BB2      -0.145400
      2 C3          -0.5030    -0.1780    -1.4090 c          1 BB2       0.669100
      3 O4           0.2820    -0.2220    -2.3330 o          1 BB2      -0.571100
      4 N1          -1.8260    -0.2880    -1.6440 ns         1 BB2      -0.473400
      5 O2          -2.2990    -0.4560    -2.9680 oh         1 BB2      -0.361100
      6 C6           1.5300     0.0000     0.0000 c3         1 BB2      -0.124700
      7 C12          2.0320     0.0000     1.4200 c          1 BB2       0.659100
      8 O13          2.7300     0.9090     1.8150 o          1 BB2      -0.608100
      9 C7           2.0390     1.2470    -0.7240 c3         1 BB2      -0.069400
     10 C8           3.5610     1.1660    -0.8700 c3         1 BB2      -0.084400
     11 C9           4.0570     2.3480    -1.7050 c3         1 BB2      -0.078400
     12 C10          5.5780     2.2660    -1.8520 c3         1 BB2      -0.083400
     13 C11          6.0740     3.4490    -2.6860 c3         1 BB2      -0.092100
     14 N14          1.7070    -1.0090     2.2500 ns         1 BB2      -0.574900
     15 C15          2.1960    -1.0080     3.6310 c3         1 BB2       0.050700
     16 C16          1.1890    -0.2850     4.5270 c3         1 BB2      -0.082700
     17 C18         -0.1480    -1.0290     4.4970 c3         1 BB2      -0.094600
     18 C17          1.7190    -0.2480     5.9620 c3         1 BB2      -0.094600
     19 C19          2.3620    -2.4280     4.1060 c          1 BB2       0.675100
     20 O20          1.5890    -3.2850     3.7360 o          1 BB2      -0.618100
     21 N21          3.3700    -2.7450     4.9430 n          1 BB2      -0.487800
     22 C22          3.6480    -4.0850     5.4790 c3         1 BB2       0.114700
     23 C23          4.3710    -1.8050     5.4770 c3         1 BB2       0.086000
     24 C24          5.5950    -2.6850     5.8300 c3         1 BB2      -0.100400
     25 C25          4.9100    -3.9710     6.3620 c3         1 BB2      -0.083400
     26 C26          2.4690    -4.5770     6.3170 c3         1 BB2       0.123400
     27 O27          2.7630    -5.8750     6.8390 oh         1 BB2      -0.612800
     28 H51         -0.3610     0.9420     0.3960 hc         1 BB2       0.066200
     29 H52         -0.3610    -0.8130     0.6180 hc         1 BB2       0.066200
     30 HN1         -2.4730    -0.2630    -0.8810 hn         1 BB2       0.318500
     31 HO2         -3.2400    -0.5080    -2.9610 ho         1 BB2       0.399000
     32 H6           1.8900    -0.8850    -0.5100 hc         1 BB2       0.088700
     33 H71          1.5850     1.3060    -1.7060 hc         1 BB2       0.062700
     34 H72          1.7780     2.1290    -0.1520 hc         1 BB2       0.062700
     35 H81          4.0200     1.1990     0.1110 hc         1 BB2       0.050700
     36 H82          3.8270     0.2390    -1.3620 hc         1 BB2       0.050700
     37 H91          3.5980     2.3150    -2.6860 hc         1 BB2       0.041200
     38 H92          3.7910     3.2750    -1.2120 hc         1 BB2       0.041200
     39 H101         6.0370     2.2980    -0.8710 hc         1 BB2       0.039200
     40 H102         5.8440     1.3390    -2.3450 hc         1 BB2       0.039200
     41 H111         5.6200     3.4120    -3.6690 hc         1 BB2       0.031033
     42 H112         5.8010     4.3760    -2.1970 hc         1 BB2       0.031033
     43 H113         7.1510     3.3950    -2.7830 hc         1 BB2       0.031033
     44 H14          1.1690    -1.7810     1.9110 hn         1 BB2       0.333500
     45 H15          3.1510    -0.4990     3.6760 h1         1 BB2       0.090700
     46 H16          1.0480     0.7270     4.1680 hc         1 BB2       0.072700
     47 H181        -0.0100    -2.0360     4.8720 hc         1 BB2       0.039533
     48 H182        -0.8660    -0.5070     5.1190 hc         1 BB2       0.039533
     49 H183        -0.5160    -1.0690     3.4790 hc         1 BB2       0.039533
     50 H171         1.7730    -1.2570     6.3530 hc         1 BB2       0.039533
     51 H172         1.0510     0.3430     6.5780 hc         1 BB2       0.039533
     52 H173         2.7060     0.1970     5.9710 hc         1 BB2       0.039533
     53 H22          3.8360    -4.7720     4.6630 h1         1 BB2       0.076700
     54 H231         3.9910    -1.3160     6.3660 h1         1 BB2       0.053200
     55 H232         4.6390    -1.0740     4.7230 h1         1 BB2       0.053200
     56 H241         6.1950    -2.2200     6.6030 hc         1 BB2       0.059200
     57 H242         6.1840    -2.9000     4.9470 hc         1 BB2       0.059200
     58 H251         4.6360    -3.8540     7.4040 hc         1 BB2       0.063200
     59 H252         5.5520    -4.8320     6.2220 hc         1 BB2       0.063200
     60 H261         2.2960    -3.8900     7.1360 h1         1 BB2       0.036200
     61 H262         1.5820    -4.6300     5.6970 h1         1 BB2       0.036200
     62 H27          1.9950    -6.2270     7.2580 ho         1 BB2       0.407000
@<TRIPOS>BOND
     1     1     2 1
     2     1     6 1
     3     1    28 1
     4     1    29 1
     5     2     3 2
     6     2     4 1
     7     4     5 1
     8     4    30 1
     9     5    31 1
    10     6     7 1
    11     6     9 1
    12     6    32 1
    13     7     8 2
    14     7    14 1
    15     9    10 1
    16     9    33 1
    17     9    34 1
    18    10    11 1
    19    10    35 1
    20    10    36 1
    21    11    12 1
    22    11    37 1
    23    11    38 1
    24    12    13 1
    25    12    39 1
    26    12    40 1
    27    13    41 1
    28    13    42 1
    29    13    43 1
    30    14    15 1
    31    14    44 1
    32    15    16 1
    33    15    19 1
    34    15    45 1
    35    16    17 1
    36    16    18 1
    37    16    46 1
    38    17    47 1
    39    17    48 1
    40    17    49 1
    41    18    50 1
    42    18    51 1
    43    18    52 1
    44    19    20 2
    45    19    21 1
    46    21    22 1
    47    21    23 1
    48    22    25 1
    49    22    26 1
    50    22    53 1
    51    23    24 1
    52    23    54 1
    53    23    55 1
    54    24    25 1
    55    24    56 1
    56    24    57 1
    57    25    58 1
    58    25    59 1
    59    26    27 1
    60    26    60 1
    61    26    61 1
    62    27    62 1
@<TRIPOS>SUBSTRUCTURE
     1 BB2         1 TEMP              0 ****  ****    0 ROOT
