@<TRIPOS>MOLECULE
BB3
   46    47     1     0     0
SMALL
bcc


@<TRIPOS>ATOM
      1 BR22        0.0460   -1.1060   -0.3090 br        1 BB3     -0.035100
      2 C13         1.8980   -0.8350   -0.2900 ca        1 BB3     -0.112400
      3 C14         2.7110   -1.1720    0.8200 ca        1 BB3      0.229100
      4 O20         2.0860   -1.7300    1.8940 oh        1 BB3     -0.458100
      5 C15         4.1040   -0.9320    0.7740 ca        1 BB3     -0.112400
      6 BR21        5.2230   -1.3530    2.2140 br        1 BB3     -0.035100
      7 C16         4.6670   -0.3610   -0.3650 ca        1 BB3     -0.011500
      8 C12         2.4900   -0.2700   -1.4170 ca        1 BB3     -0.011500
      9 C11         3.8690   -0.0410   -1.4720 ca        1 BB3     -0.229600
     10 C03         4.5060    0.5810   -2.6450 c         1 BB3      0.619900
     11 O19         5.6090    1.1370   -2.5740 o         1 BB3     -0.504100
     12 C9          3.7870    0.5270   -3.9280 cc        1 BB3     -0.260400
     13 C8          3.6590    1.5830   -4.8360 cd        1 BB3      0.211900
     14 C17         4.0850    2.9950   -4.8140 c3        1 BB3     -0.052200
     15 C18         5.5550    3.1360   -5.1450 c3        1 BB3     -0.101100
     16 C5          3.1560   -0.6160   -4.5280 ca        1 BB3      0.071200
     17 C6          2.9500   -1.9580   -4.1780 ca        1 BB3     -0.121000
     18 C4          2.6570   -0.1680   -5.8050 ca        1 BB3      0.000100
     19 O7          2.9590    1.1880   -5.9800 os        1 BB3     -0.171200
     20 C3          1.9900   -0.9750   -6.6930 ca        1 BB3      0.053000
     21 C2          1.7860   -2.3320   -6.3250 ca        1 BB3     -0.599500
     22 C1          2.2840   -2.7800   -5.0640 ca        1 BB3      0.002000
     23 S01         0.9870   -3.3070   -7.2540 s4        1 BB3      1.658300
     24 O01         0.6350   -4.5180   -6.7360 o         1 BB3     -0.442400
     25 O02         0.3570   -2.7590   -8.3320 o         1 BB3     -0.442400
     26 N01         2.7110   -4.1520   -8.4800 n3        1 BB3     -0.914200
     27 C01         3.6530   -4.8770   -7.6390 c3        1 BB3      0.094100
     28 C02         3.3440   -3.1180   -9.2880 c3        1 BB3      0.094100
     29 H20         2.7390   -1.8770    2.6040 ho        1 BB3      0.452000
     30 H16         5.7510   -0.1470   -0.4110 ha        1 BB3      0.163500
     31 H12         1.8610    0.0130   -2.2780 ha        1 BB3      0.163500
     32 H171        3.4680    3.5850   -5.5470 hc        1 BB3      0.093200
     33 H172        3.8910    3.4020   -3.7830 hc        1 BB3      0.093200
     34 H181        5.7700    2.7570   -6.1720 hc        1 BB3      0.063367
     35 H182        5.8370    4.2170   -5.0980 hc        1 BB3      0.063367
     36 H183        6.1800    2.5710   -4.4090 hc        1 BB3      0.063367
     37 H6          3.3080   -2.3370   -3.2050 ha        1 BB3      0.186000
     38 H3          1.6130   -0.5850   -7.6560 ha        1 BB3      0.187000
     39 H1          2.1110   -3.8380   -4.7840 ha        1 BB3      0.170000
     40 H011        4.1340   -4.1640   -6.9170 h1        1 BB3      0.077700
     41 H012        3.0960   -5.6690   -7.0690 h1        1 BB3      0.077700
     42 H013        4.4640   -5.3690   -8.2410 h1        1 BB3      0.077700
     43 H021        4.1310   -3.5390   -9.9700 h1        1 BB3      0.077700
     44 H022        3.8300   -2.3630   -8.6140 h1        1 BB3      0.077700
     45 H023        2.5580   -2.6130   -9.9140 h1        1 BB3      0.077700
     46 H014        2.2550   -4.8120   -9.0990 hn        1 BB3      0.411800
@<TRIPOS>BOND
     1    1    2 1
     2    2    3 ar
     3    2    8 ar
     4    3    4 1
     5    3    5 ar
     6    4   29 1
     7    5    6 1
     8    5    7 ar
     9    7    9 ar
    10    7   30 1
    11    8    9 ar
    12    8   31 1
    13    9   10 1
    14   10   11 2
    15   10   12 1
    16   12   13 2
    17   12   16 1
    18   13   14 1
    19   13   19 1
    20   14   15 1
    21   14   32 1
    22   14   33 1
    23   15   34 1
    24   15   35 1
    25   15   36 1
    26   16   17 ar
    27   16   18 ar
    28   17   22 ar
    29   17   37 1
    30   18   19 1
    31   18   20 ar
    32   20   21 ar
    33   20   38 1
    34   21   22 ar
    35   21   23 1
    36   22   39 1
    37   23   24 1
    38   23   25 1
    39   26   27 1
    40   26   28 1
    41   26   46 1
    42   27   40 1
    43   27   41 1
    44   27   42 1
    45   28   43 1
    46   28   44 1
    47   28   45 1
@<TRIPOS>SUBSTRUCTURE
     1 BB3         1 TEMP              0 ****  ****    0 ROOT
