@<TRIPOS>MOLECULE
molecule
   24    25     1     0     0
SMALL
bcc


@<TRIPOS>ATOM
      1 Br           0.0000     0.0000     0.0000 br         1 BB4      -0.104100
      2 N1           5.5680     1.6630    -4.2290 ns         1 BB4      -0.479400
      3 O2           5.3110     2.3350    -2.1310 o          1 BB4      -0.555100
      4 N3           5.8860     0.0000     1.2690 na         1 BB4      -0.177400
      5 C4           6.3970     0.0000     0.0000 cc         1 BB4      -0.074100
      6 C5           5.3990     0.0010    -0.8970 cd         1 BB4      -0.139400
      7 C6           4.1440     0.0000    -0.1400 ca         1 BB4      -0.084800
      8 C7           2.7950     0.0000    -0.5000 ca         1 BB4      -0.046000
      9 C8           1.8290    -0.0010     0.4810 ca         1 BB4      -0.043900
     10 C9           2.1900    -0.0010     1.8230 ca         1 BB4      -0.086000
     11 C10          3.5170    -0.0010     2.1930 ca         1 BB4      -0.141000
     12 C11          4.5090    -0.0000     1.2180 ca         1 BB4      -0.026200
     13 C13          5.4650     1.4160    -2.9080 c          1 BB4       0.662100
     14 O14          5.4970     2.9920    -4.7100 oh         1 BB4      -0.362100
     15 HN1          5.6960     0.9050    -4.8700 hn         1 BB4       0.314500
     16 HN3          6.4310    -0.0000     2.1080 hn         1 BB4       0.299700
     17 H4           7.4520    -0.0010    -0.2450 h4         1 BB4       0.167000
     18 H7           2.5120    -0.1170    -1.5390 ha         1 BB4       0.141000
     19 H9           1.4210    -0.0010     2.5850 ha         1 BB4       0.144000
     20 H10          3.7880    -0.0000     3.2420 ha         1 BB4       0.131000
     21 H12          4.7430    -0.5850    -2.8360 hc         1 BB4       0.063700
     22 H12A         6.4970    -0.4300    -2.6690 hc         1 BB4       0.063700
     23 HO14         5.5840     2.9920    -5.6490 ho         1 BB4       0.396000
     24 C12          5.5410     0.0010    -2.3970 c3         1 BB4      -0.064200
@<TRIPOS>BOND
     1     1     9 1
     2     2    13 1
     3     2    14 1
     4     3    13 2
     5     4     5 1
     6     4    12 1
     7     5     6 2
     8     6     7 1
     9     6    24 1
    10     7     8 ar
    11     7    12 ar
    12     8     9 ar
    13     9    10 ar
    14    10    11 ar
    15    11    12 ar
    16    24    13 1
    17     2    15 1
    18     4    16 1
    19     5    17 1
    20     8    18 1
    21    10    19 1
    22    11    20 1
    23    24    21 1
    24    24    22 1
    25    14    23 1
@<TRIPOS>SUBSTRUCTURE
     1 BB4         1 TEMP              0 ****  ****    0 ROOT
