@<TRIPOS>MOLECULE
BBA
   58    60     1     0     0
SMALL
bcc


@<TRIPOS>ATOM
      1 C8           0.0000     0.0000     0.0000 c3         1 BBA       0.025900
      2 C9          -0.5020    -0.1290    -1.4150 ca         1 BBA      -0.035800
      3 C14         -0.6220    -1.3810    -1.9910 ca         1 BBA      -0.070750
      4 C13         -1.0830    -1.5050    -3.2860 ca         1 BBA      -0.070000
      5 C10         -0.8390     1.0040    -2.1310 ca         1 BBA      -0.070750
      6 C11         -1.2950     0.8920    -3.4290 ca         1 BBA      -0.070000
      7 C12         -1.4250    -0.3660    -4.0140 ca         1 BBA      -0.233400
      8 C15         -1.9200    -0.4930    -5.4040 ce         1 BBA       0.205800
      9 N16         -2.1430     0.6350    -6.1610 nz         1 BBA       0.191400
     10 N17         -2.1430    -1.6710    -5.9100 n2         1 BBA      -0.475100
     11 C18          3.1700     0.5670    -2.8100 c3         1 BBA       0.025900
     12 C19          4.4210     0.7500    -3.6300 ca         1 BBA      -0.035800
     13 C20          5.3870    -0.2410    -3.6450 ca         1 BBA      -0.070750
     14 C21          6.5340    -0.0790    -4.3930 ca         1 BBA      -0.070000
     15 C24          4.5950     1.9040    -4.3710 ca         1 BBA      -0.070750
     16 C23          5.7400     2.0800    -5.1210 ca         1 BBA      -0.070000
     17 C22          6.7180     1.0860    -5.1380 ca         1 BBA      -0.233400
     18 C25          7.9470     1.2660    -5.9450 ce         1 BBA       0.205800
     19 N26          8.1810     2.4620    -6.5860 nz         1 BBA       0.191400
     20 N27          8.8060     0.2930    -6.0470 n2         1 BBA      -0.475100
     21 C1           1.5300     0.0000     0.0000 c3         1 BBA      -0.141700
     22 C2           2.0460     0.0000     1.4620 c3         1 BBA      -0.014400
     23 C3           3.4990    -0.2340     1.4800 c3         1 BBA      -0.037900
     24 C            4.3290     0.8450     0.8020 c3         1 BBA      -0.037900
     25 C4           4.4580     0.5240    -0.6680 c3         1 BBA      -0.014400
     26 C5           3.3470     1.2470    -1.4510 c3         1 BBA      -0.141700
     27 C6           2.0260     1.2150    -0.7060 c          1 BBA       0.618100
     28 O7           1.3480     2.2140    -0.6830 o          1 BBA      -0.552100
     29 H81         -0.3610     0.9270     0.4290 hc         1 BBA       0.038450
     30 H82         -0.3610    -0.8350     0.5890 hc         1 BBA       0.038450
     31 H14         -0.3560    -2.2650    -1.4240 ha         1 BBA       0.135500
     32 H13         -1.1790    -2.4860    -3.7350 ha         1 BBA       0.101250
     33 H10         -0.7380     1.9820    -1.6760 ha         1 BBA       0.135500
     34 H11         -1.5590     1.7810    -3.9890 ha         1 BBA       0.101250
     35 HG11        -2.4370     0.3680    -7.0790 hn         1 BBA       0.222300
     36 HG12        -2.8570     1.1900    -5.7310 hn         1 BBA       0.222300
     37 HG2         -1.9810    -2.4920    -5.3610 hn         1 BBA       0.381400
     38 H181         2.9860    -0.4900    -2.6630 hc         1 BBA       0.038450
     39 H182         2.3300     1.0120    -3.3290 hc         1 BBA       0.038450
     40 H20          5.2430    -1.1450    -3.0660 ha         1 BBA       0.135500
     41 H21          7.2890    -0.8550    -4.4030 ha         1 BBA       0.101250
     42 H24          3.8340     2.6750    -4.3580 ha         1 BBA       0.135500
     43 H23          5.8760     2.9850    -5.7000 ha         1 BBA       0.101250
     44 HG31         7.4650     2.6210    -7.2670 hn         1 BBA       0.222300
     45 HG32         8.1760     3.2060    -5.9160 hn         1 BBA       0.222300
     46 HG4          8.6370    -0.5760    -5.5820 hn         1 BBA       0.381400
     47 H1           1.8950    -0.8840    -0.5090 hc         1 BBA       0.048700
     48 H21A         1.8320     0.9590     1.9170 hc         1 BBA       0.028700
     49 H22          1.5500    -0.7860     2.0170 hc         1 BBA       0.028700
     50 H31          3.8180    -0.3100     2.5130 hc         1 BBA       0.029950
     51 H32          3.6980    -1.1770     0.9850 hc         1 BBA       0.029950
     52 H1A          3.8390     1.8040     0.9200 hc         1 BBA       0.029950
     53 H2           5.3140     0.8790     1.2520 hc         1 BBA       0.029950
     54 H41          4.3620    -0.5450    -0.8120 hc         1 BBA       0.028700
     55 H42          5.4250     0.8560    -1.0250 hc         1 BBA       0.028700
     56 H5           3.6400     2.2790    -1.6030 hc         1 BBA       0.048700
     57 H163        -1.2980     1.1680    -6.2230 hn         1 BBA       0.222300
     58 H263         9.0710     2.4270    -7.0420 hn         1 BBA       0.222300
@<TRIPOS>BOND
     1     1     2 1   
     2     1    21 1   
     3     1    29 1   
     4     1    30 1   
     5     2     3 ar  
     6     2     5 ar  
     7     3     4 ar  
     8     3    31 1   
     9     4     7 ar  
    10     4    32 1   
    11     5     6 ar  
    12     5    33 1   
    13     6     7 ar  
    14     6    34 1   
    15     7     8 1   
    16     8     9 1   
    17     8    10 2   
    18     9    35 1   
    19     9    36 1   
    20     9    57 1   
    21    10    37 1   
    22    11    12 1   
    23    11    26 1   
    24    11    38 1   
    25    11    39 1   
    26    12    13 ar  
    27    12    15 ar  
    28    13    14 ar  
    29    13    40 1   
    30    14    17 ar  
    31    14    41 1   
    32    15    16 ar  
    33    15    42 1   
    34    16    17 ar  
    35    16    43 1   
    36    17    18 1   
    37    18    19 1   
    38    18    20 2   
    39    19    44 1   
    40    19    45 1   
    41    19    58 1   
    42    20    46 1   
    43    21    22 1   
    44    21    27 1   
    45    21    47 1   
    46    22    23 1   
    47    22    48 1   
    48    22    49 1   
    49    23    24 1   
    50    23    50 1   
    51    23    51 1   
    52    24    25 1   
    53    24    52 1   
    54    24    53 1   
    55    25    26 1   
    56    25    54 1   
    57    25    55 1   
    58    26    27 1   
    59    26    56 1   
    60    27    28 2   
@<TRIPOS>SUBSTRUCTURE
     1 BBA         1 TEMP              0 ****  ****    0 ROOT
