@<TRIPOS>MOLECULE
molecule
   58    60     1     0     0
SMALL
bcc


@<TRIPOS>ATOM
      1 C8           0.0000     0.0000     0.0000 c3         1 BBA      -0.038100
      2 C9          -0.5020    -0.1290    -1.4150 ca         1 BBA      -0.027800
      3 C14         -0.6220    -1.3810    -1.9910 ca         1 BBA      -0.114250
      4 C13         -1.0830    -1.5050    -3.2860 ca         1 BBA      -0.082500
      5 C10         -0.8390     1.0040    -2.1310 ca         1 BBA      -0.114250
      6 C11         -1.2950     0.8920    -3.4290 ca         1 BBA      -0.082500
      7 C12         -1.4250    -0.3660    -4.0140 ca         1 BBA      -0.199900
      8 C15         -1.9200    -0.4930    -5.4040 ce         1 BBA       0.538300
      9 N16         -2.1430     0.6350    -6.1610 nz         1 BBA      -0.800600
     10 N17         -2.1430    -1.6710    -5.9100 n2         1 BBA      -0.675600
     11 C18          3.1700     0.5670    -2.8100 c3         1 BBA      -0.038100
     12 C19          4.4210     0.7500    -3.6300 ca         1 BBA      -0.027800
     13 C20          5.3870    -0.2410    -3.6450 ca         1 BBA      -0.114250
     14 C21          6.5340    -0.0790    -4.3930 ca         1 BBA      -0.082500
     15 C24          4.5950     1.9040    -4.3710 ca         1 BBA      -0.114250
     16 C23          5.7400     2.0800    -5.1210 ca         1 BBA      -0.082500
     17 C22          6.7180     1.0860    -5.1380 ca         1 BBA      -0.199900
     18 C25          7.9470     1.2660    -5.9450 ce         1 BBA       0.538300
     19 N26          8.1810     2.4620    -6.5860 nz         1 BBA      -0.800600
     20 N27          8.8060     0.2930    -6.0470 n2         1 BBA      -0.675600
     21 C1           1.5300     0.0000     0.0000 c3         1 BBA      -0.164700
     22 C2           2.0460     0.0000     1.4620 c3         1 BBA      -0.067400
     23 C3           3.4990    -0.2340     1.4800 c3         1 BBA      -0.089400
     24 C            4.3290     0.8450     0.8020 c3         1 BBA      -0.089400
     25 C4           4.4580     0.5240    -0.6680 c3         1 BBA      -0.067400
     26 C5           3.3470     1.2470    -1.4510 c3         1 BBA      -0.164700
     27 C6           2.0260     1.2150    -0.7060 c          1 BBA       0.580100
     28 O7           1.3480     2.2140    -0.6830 o          1 BBA      -0.527100
     29 H81         -0.3610     0.9270     0.4290 hc         1 BBA       0.071200
     30 H82         -0.3610    -0.8350     0.5890 hc         1 BBA       0.071200
     31 H14         -0.3560    -2.2650    -1.4240 ha         1 BBA       0.166000
     32 H13         -1.1790    -2.4860    -3.7350 ha         1 BBA       0.141000
     33 H10         -0.7380     1.9820    -1.6760 ha         1 BBA       0.166000
     34 H11         -1.5590     1.7810    -3.9890 ha         1 BBA       0.141000
     35 HG11        -2.8660     1.1830    -5.7380 hn         1 BBA       0.465633
     36 HG12        -2.4240     0.3680    -7.0830 hn         1 BBA       0.465633
     37 HG2         -2.4770    -1.7590    -6.8490 hn         1 BBA       0.437900
     38 H181         2.9860    -0.4900    -2.6630 hc         1 BBA       0.071200
     39 H182         2.3300     1.0120    -3.3290 hc         1 BBA       0.071200
     40 H20          5.2430    -1.1450    -3.0660 ha         1 BBA       0.166000
     41 H21          7.2890    -0.8550    -4.4030 ha         1 BBA       0.141000
     42 H24          3.8340     2.6750    -4.3580 ha         1 BBA       0.166000
     43 H23          5.8760     2.9850    -5.7000 ha         1 BBA       0.141000
     44 HG31         9.0790     2.4340    -7.0270 hn         1 BBA       0.465633
     45 HG32         7.4740     2.6140    -7.2770 hn         1 BBA       0.465633
     46 HG4          9.6370     0.4130    -6.5920 hn         1 BBA       0.437900
     47 H1           1.8950    -0.8840    -0.5090 hc         1 BBA       0.073700
     48 H21A         1.5500    -0.7860     2.0170 hc         1 BBA       0.057200
     49 H22          1.8320     0.9590     1.9170 hc         1 BBA       0.057200
     50 H31          3.6980    -1.1770     0.9850 hc         1 BBA       0.057200
     51 H32          3.8180    -0.3100     2.5130 hc         1 BBA       0.057200
     52 H1A          3.8390     1.8040     0.9200 hc         1 BBA       0.057200
     53 H2           5.3140     0.8790     1.2520 hc         1 BBA       0.057200
     54 H41          5.4250     0.8560    -1.0250 hc         1 BBA       0.057200
     55 H42          4.3620    -0.5450    -0.8120 hc         1 BBA       0.057200
     56 H5           3.6400     2.2790    -1.6030 hc         1 BBA       0.073700
     57 H163        -1.3020     1.1750    -6.2120 hn         1 BBA       0.465633
     58 H263         8.1630     3.2070    -5.9180 hn         1 BBA       0.465633
@<TRIPOS>BOND
     1     1     2 1
     2     1    21 1
     3     1    29 1
     4     1    30 1
     5     2     3 ar
     6     2     5 ar
     7     3     4 ar
     8     3    31 1
     9     4     7 ar
    10     4    32 1
    11     5     6 ar
    12     5    33 1
    13     6     7 ar
    14     6    34 1
    15     7     8 1
    16     8     9 1
    17     8    10 2
    18     9    35 1
    19     9    36 1
    20    10    37 1
    21    11    12 1
    22    11    26 1
    23    11    38 1
    24    11    39 1
    25    12    13 ar
    26    12    15 ar
    27    13    14 ar
    28    13    40 1
    29    14    17 ar
    30    14    41 1
    31    15    16 ar
    32    15    42 1
    33    16    17 ar
    34    16    43 1
    35    17    18 1
    36    18    19 1
    37    18    20 2
    38    19    44 1
    39    19    45 1
    40    20    46 1
    41    21    22 1
    42    21    27 1
    43    21    47 1
    44    22    23 1
    45    22    48 1
    46    22    49 1
    47    23    24 1
    48    23    50 1
    49    23    51 1
    50    24    25 1
    51    24    52 1
    52    24    53 1
    53    25    26 1
    54    25    54 1
    55    25    55 1
    56    26    27 1
    57    26    56 1
    58    27    28 2
    59    57     9 1
    60    58    19 1
@<TRIPOS>SUBSTRUCTURE
     1 BBA         1 TEMP              0 ****  ****    0 ROOT
