@<TRIPOS>MOLECULE
BBB
   51    53     1     0     0
SMALL
bcc


@<TRIPOS>ATOM
      1 OAC         0.9650    2.8920    3.0380 oh        1 BBB     -0.596800
      2 CAN         1.1150    1.6790    2.3320 c3        1 BBB      0.131400
      3 CAO         2.0090    0.6970    3.0800 c3        1 BBB      0.076400
      4 OAT         1.2940    0.3370    4.2670 os        1 BBB     -0.432600
      5 CAR         1.9140   -0.6720    5.0430 c3        1 BBB      0.300800
      6 NBC         1.5660   -2.0200    4.6050 n         1 BBB     -0.401000
      7 CBB         2.3880   -2.6800    3.6490 c         1 BBB      0.813500
      8 OAB         3.4450   -2.1430    3.2530 o         1 BBB     -0.642500
      9 NAS         2.0010   -3.9380    3.1780 n         1 BBB     -0.584500
     10 CBA         0.8100   -4.5760    3.5720 c         1 BBB      0.736700
     11 OAA         0.5380   -5.6770    3.0620 o         1 BBB     -0.620500
     12 CAY         0.3690   -2.6240    4.9890 cc        1 BBB      0.311700
     13 CAZ        -0.0170   -3.8740    4.5560 cd        1 BBB     -0.353400
     14 CAQ        -1.2360   -4.5590    5.0540 c3        1 BBB      0.024100
     15 CAW        -2.4950   -4.0200    4.4580 ca        1 BBB     -0.059300
     16 CAK        -3.4290   -3.3490    5.2510 ca        1 BBB     -0.187000
     17 CAH        -4.6100   -2.8660    4.6820 ca        1 BBB     -0.093000
     18 CAL        -4.8720   -3.0450    3.3300 ca        1 BBB     -0.155000
     19 CAM        -2.7430   -4.2150    3.0940 ca        1 BBB     -0.192000
     20 CAX        -3.9280   -3.7270    2.5360 ca        1 BBB      0.135100
     21 OAU        -4.2780   -3.8470    1.2070 os        1 BBB     -0.326900
     22 CAP        -3.3870   -4.6330    0.3990 c3        1 BBB      0.173700
     23 CAV        -3.9640   -4.7110   -0.9760 ca        1 BBB     -0.094300
     24 CAJ        -3.6630   -5.8230   -1.7710 ca        1 BBB     -0.112500
     25 CAG        -4.1560   -5.9040   -3.0710 ca        1 BBB     -0.131000
     26 CAE        -4.9570   -4.8820   -3.5820 ca        1 BBB     -0.125000
     27 CAF        -5.2630   -3.7760   -2.7900 ca        1 BBB     -0.131000
     28 CAI        -4.7660   -3.6880   -1.4890 ca        1 BBB     -0.112500
     29 OAD        -0.3530   -1.8750    5.8860 oh        1 BBB     -0.492100
     30 HAC         0.5850    2.6720    3.8980 ho        1 BBB      0.411000
     31 HAN1        0.1110    1.2160    2.1380 h1        1 BBB      0.055700
     32 HAN2        1.6010    1.9650    1.3610 h1        1 BBB      0.055700
     33 HAO1        2.2150   -0.2110    2.4580 h1        1 BBB      0.055200
     34 HAO2        2.9780    1.1810    3.3740 h1        1 BBB      0.055200
     35 HAR1        1.4940   -0.5160    6.0800 h2        1 BBB      0.097200
     36 HAR2        3.0380   -0.5790    5.0150 h2        1 BBB      0.097200
     37 HAS         2.6040   -4.3820    2.5180 hn        1 BBB      0.356500
     38 HAQ1       -1.1610   -5.6560    4.8020 hc        1 BBB      0.072200
     39 HAQ2       -1.2770   -4.4800    6.1760 hc        1 BBB      0.072200
     40 HAK        -3.2530   -3.2190    6.3280 ha        1 BBB      0.127000
     41 HAH        -5.3440   -2.3400    5.3130 ha        1 BBB      0.136000
     42 HAL        -5.7970   -2.6700    2.8700 ha        1 BBB      0.152000
     43 HAM        -1.9960   -4.7550    2.4920 ha        1 BBB      0.155000
     44 HAP1       -2.3820   -4.1290    0.3670 h1        1 BBB      0.052700
     45 HAP2       -3.2810   -5.6570    0.8500 h1        1 BBB      0.052700
     46 HAJ        -3.0370   -6.6340   -1.3680 ha        1 BBB      0.140000
     47 HAG        -3.9150   -6.7780   -3.6950 ha        1 BBB      0.133000
     48 HAE        -5.3460   -4.9490   -4.6080 ha        1 BBB      0.132000
     49 HAF        -5.8960   -2.9710   -3.1890 ha        1 BBB      0.133000
     50 HAI        -5.0100   -2.8200   -0.8580 ha        1 BBB      0.140000
     51 HAD        -1.2660   -2.2190    5.8890 ho        1 BBB      0.464000
@<TRIPOS>BOND
     1    1    2 1
     2    1   30 1
     3    2    3 1
     4    2   31 1
     5    2   32 1
     6    3    4 1
     7    3   33 1
     8    3   34 1
     9    4    5 1
    10    5    6 1
    11    5   35 1
    12    5   36 1
    13    6    7 1
    14    6   12 1
    15    7    8 2
    16    7    9 1
    17    9   10 1
    18    9   37 1
    19   10   11 2
    20   10   13 1
    21   12   13 2
    22   12   29 1
    23   13   14 1
    24   14   15 1
    25   14   38 1
    26   14   39 1
    27   15   16 ar
    28   15   19 ar
    29   16   17 ar
    30   16   40 1
    31   17   18 ar
    32   17   41 1
    33   18   20 ar
    34   18   42 1
    35   19   20 ar
    36   19   43 1
    37   20   21 1
    38   21   22 1
    39   22   23 1
    40   22   44 1
    41   22   45 1
    42   23   24 ar
    43   23   28 ar
    44   24   25 ar
    45   24   46 1
    46   25   26 ar
    47   25   47 1
    48   26   27 ar
    49   26   48 1
    50   27   28 ar
    51   27   49 1
    52   28   50 1
    53   29   51 1
@<TRIPOS>SUBSTRUCTURE
     1 BBB         1 TEMP              0 ****  ****    0 ROOT
