@<TRIPOS>MOLECULE
BBE
   49    51     1     0     0
SMALL
bcc


@<TRIPOS>ATOM
      1 CAY          0.0000     0.0000     0.0000 ca         1 BBE      -0.088500
      2 CAZ          1.3830     0.0000     0.0000 ca         1 BBE      -0.077500
      3 CBA          2.0740     0.0000     1.1970 ca         1 BBE      -0.060000
      4 CAX          1.3820     0.0010     2.3940 ca         1 BBE      -0.077500
      5 CAW          0.0000     0.0020     2.3950 ca         1 BBE      -0.088500
      6 CAV         -0.6910     0.0000     1.1970 ca         1 BBE      -0.172300
      7 CAU         -2.1980     0.0000     1.1970 c3         1 BBE       0.088300
      8 NAN         -2.6870    -1.3810     1.1980 n          1 BBE       0.051000
      9 CAO         -2.9150    -2.0260     2.3910 cc         1 BBE      -0.372400
     10 NAP         -2.6870    -1.3800     3.5840 nz         1 BBE       0.238600
     11 CAM         -2.9150    -2.0100     0.0300 c          1 BBE       0.594500
     12 OAL         -2.7120    -1.4230    -1.0160 o          1 BBE      -0.642500
     13 NAD         -3.3640    -3.2780     0.0010 ns         1 BBE      -0.089500
     14 CAE         -3.5960    -3.9500     1.1450 c          1 BBE       0.599700
     15 OAA         -4.0020    -5.0990     1.1100 o          1 BBE      -0.589500
     16 CAF         -3.3710    -3.3160     2.3810 cd         1 BBE       0.069800
     17 NAG         -3.6140    -4.0020     3.5940 nh         1 BBE      -0.384300
     18 CAB         -2.6040    -3.9930     4.6550 c3         1 BBE       0.242100
     19 SAH         -5.0400    -4.8140     3.8140 sy         1 BBE       1.043200
     20 OAQ         -5.4800    -4.5040     5.1290 o          1 BBE      -0.552800
     21 OAC         -5.8240    -4.5710     2.6540 o          1 BBE      -0.552800
     22 CAI         -4.6650    -6.5360     3.8070 ca         1 BBE      -0.160500
     23 CAJ         -4.3520    -7.1810     4.9910 ca         1 BBE      -0.019000
     24 CAK         -4.0580    -8.5310     4.9860 ca         1 BBE      -0.119000
     25 CAT         -4.0770    -9.2380     3.7990 ca         1 BBE      -0.027000
     26 CAS         -4.3900    -8.5950     2.6160 ca         1 BBE      -0.110300
     27 CAR         -4.6880    -7.2450     2.6210 ca         1 BBE       0.012000
     28 CAL         -4.4090    -9.3660     1.3210 c3         1 BBE       0.065200
     29 HAY         -0.5420    -0.0010    -0.9380 ha         1 BBE       0.097000
     30 HAZ          1.9240    -0.0000    -0.9380 ha         1 BBE       0.119000
     31 HBA          3.1570    -0.0000     1.1970 ha         1 BBE       0.121000
     32 HAX          1.9240     0.0010     3.3330 ha         1 BBE       0.119000
     33 HAW         -0.5410     0.0020     3.3330 ha         1 BBE       0.097000
     34 HAU1        -2.5590     0.5120     2.0810 h1         1 BBE       0.050700
     35 HAU2        -2.5590     0.5110     0.3120 h1         1 BBE       0.050700
     36 HAP1        -1.7290    -1.4960     3.8490 hn         1 BBE       0.230133
     37 HAP2        -2.8890    -0.4050     3.4800 hn         1 BBE       0.230133
     38 HAD         -3.5260    -3.7260    -0.8790 hn         1 BBE       0.230500
     39 HAB1        -1.6430    -3.7210     4.2370 h1         1 BBE       0.017367
     40 HAB2        -2.8850    -3.2730     5.4140 h1         1 BBE       0.017367
     41 HAB3        -2.5390    -4.9790     5.0990 h1         1 BBE       0.017367
     42 HAJ         -4.3380    -6.6270     5.9220 ha         1 BBE       0.117000
     43 HAR         -4.9340    -6.7410     1.6940 ha         1 BBE       0.154000
     44 HAK         -3.8130    -9.0350     5.9130 ha         1 BBE       0.118000
     45 HAT         -3.8450   -10.2960     3.7950 ha         1 BBE       0.115000
     46 HAL1        -4.5550   -10.4190     1.5300 hc         1 BBE       0.014700
     47 HAL2        -3.4670    -9.2270     0.8040 hc         1 BBE       0.014700
     48 HAL3        -5.2190    -9.0050     0.6980 hc         1 BBE       0.014700
     49 HAP3        -3.2880    -1.7590     4.2890 hn         1 BBE       0.230133
@<TRIPOS>BOND
     1     1     2 ar  
     2     1     6 ar  
     3     1    29 1   
     4     2     3 ar  
     5     2    30 1   
     6     3     4 ar  
     7     3    31 1   
     8     4     5 ar  
     9     4    32 1   
    10     5     6 ar  
    11     5    33 1   
    12     6     7 1   
    13     7     8 1   
    14     7    34 1   
    15     7    35 1   
    16     8     9 1   
    17     8    11 1   
    18     9    10 1   
    19     9    16 2   
    20    10    36 1   
    21    10    37 1   
    22    10    49 1   
    23    11    12 2   
    24    11    13 1   
    25    13    14 1   
    26    13    38 1   
    27    14    15 2   
    28    14    16 1   
    29    16    17 1   
    30    17    18 1   
    31    17    19 1   
    32    18    39 1   
    33    18    40 1   
    34    18    41 1   
    35    19    20 2   
    36    19    21 2   
    37    19    22 1   
    38    22    23 ar  
    39    22    27 ar  
    40    23    24 ar  
    41    23    42 1   
    42    24    25 ar  
    43    24    44 1   
    44    25    26 ar  
    45    25    45 1   
    46    26    27 ar  
    47    26    28 1   
    48    27    43 1   
    49    28    46 1   
    50    28    47 1   
    51    28    48 1   
@<TRIPOS>SUBSTRUCTURE
     1 BBE         1 TEMP              0 ****  ****    0 ROOT
