@<TRIPOS>MOLECULE
molecule
   49    51     1     0     0
SMALL
bcc


@<TRIPOS>ATOM
      1 CAY          0.0000     0.0000     0.0000 ca         1 BBE      -0.115000
      2 CAZ          1.3830     0.0000     0.0000 ca         1 BBE      -0.109000
      3 CBA          2.0740     0.0000     1.1970 ca         1 BBE      -0.091000
      4 CAX          1.3820     0.0010     2.3940 ca         1 BBE      -0.109000
      5 CAW          0.0000     0.0020     2.3950 ca         1 BBE      -0.115000
      6 CAV         -0.6910     0.0000     1.1970 ca         1 BBE      -0.156300
      7 CAU         -2.1980     0.0000     1.1970 c3         1 BBE       0.149300
      8 NAN         -2.6870    -1.3810     1.1980 n          1 BBE      -0.368000
      9 CAO         -2.9150    -2.0260     2.3910 cc         1 BBE       0.039600
     10 NAP         -2.6870    -1.3800     3.5840 nz         1 BBE      -0.671400
     11 CAM         -2.9150    -2.0100     0.0300 c          1 BBE       0.821500
     12 OAL         -2.7120    -1.4230    -1.0160 o          1 BBE      -0.591500
     13 NAD         -3.3640    -3.2780     0.0010 ns         1 BBE      -0.538500
     14 CAE         -3.5960    -3.9500     1.1450 c          1 BBE       0.707700
     15 OAA         -4.0020    -5.0990     1.1100 o          1 BBE      -0.551500
     16 CAF         -3.3710    -3.3160     2.3810 cd         1 BBE       0.082800
     17 NAG         -3.6140    -4.0020     3.5940 nh         1 BBE      -0.682300
     18 CAB         -2.6040    -3.9930     4.6550 c3         1 BBE       0.197100
     19 SAH         -5.0400    -4.8140     3.8140 sy         1 BBE       1.400200
     20 OAQ         -5.4800    -4.5040     5.1290 o          1 BBE      -0.604300
     21 OAC         -5.8240    -4.5710     2.6540 o          1 BBE      -0.604300
     22 CAI         -4.6650    -6.5360     3.8070 ca         1 BBE      -0.313500
     23 CAJ         -4.3520    -7.1810     4.9910 ca         1 BBE      -0.049000
     24 CAK         -4.0580    -8.5310     4.9860 ca         1 BBE      -0.142000
     25 CAT         -4.0770    -9.2380     3.7990 ca         1 BBE      -0.056000
     26 CAS         -4.3900    -8.5950     2.6160 ca         1 BBE      -0.098300
     27 CAR         -4.6880    -7.2450     2.6210 ca         1 BBE      -0.008000
     28 CAL         -4.4090    -9.3660     1.3210 c3         1 BBE      -0.049800
     29 HAY         -0.5420    -0.0010    -0.9380 ha         1 BBE       0.120000
     30 HAZ          1.9240    -0.0000    -0.9380 ha         1 BBE       0.151500
     31 HBA          3.1570    -0.0000     1.1970 ha         1 BBE       0.156000
     32 HAX          1.9240     0.0010     3.3330 ha         1 BBE       0.151500
     33 HAW         -0.5410     0.0020     3.3330 ha         1 BBE       0.120000
     34 HAU1        -2.5590     0.5120     2.0810 h1         1 BBE       0.082200
     35 HAU2        -2.5590     0.5110     0.3120 h1         1 BBE       0.082200
     36 HAP1        -1.7290    -1.4960     3.8490 hn         1 BBE       0.473133
     37 HAP2        -2.8890    -0.4050     3.4800 hn         1 BBE       0.473133
     38 HAD         -3.5260    -3.7260    -0.8790 hn         1 BBE       0.397500
     39 HAB1        -1.6430    -3.7210     4.2370 h1         1 BBE       0.058367
     40 HAB2        -2.8850    -3.2730     5.4140 h1         1 BBE       0.058367
     41 HAB3        -2.5390    -4.9790     5.0990 h1         1 BBE       0.058367
     42 HAJ         -4.3380    -6.6270     5.9220 ha         1 BBE       0.142000
     43 HAR         -4.9340    -6.7410     1.6940 ha         1 BBE       0.175000
     44 HAK         -3.8130    -9.0350     5.9130 ha         1 BBE       0.147000
     45 HAT         -3.8450   -10.2960     3.7950 ha         1 BBE       0.147000
     46 HAL1        -4.5550   -10.4190     1.5300 hc         1 BBE       0.053033
     47 HAL2        -3.4670    -9.2270     0.8040 hc         1 BBE       0.053033
     48 HAL3        -5.2190    -9.0050     0.6980 hc         1 BBE       0.053033
     49 HAP3        -3.2880    -1.7590     4.2890 hn         1 BBE       0.473133
@<TRIPOS>BOND
     1     1     2 ar
     2     1     6 ar
     3     2     3 ar
     4     3     4 ar
     5     4     5 ar
     6     5     6 ar
     7     6     7 1
     8     7     8 1
     9     8     9 1
    10     8    11 1
    11     9    10 1
    12     9    16 2
    13    11    12 2
    14    11    13 1
    15    13    14 1
    16    14    15 2
    17    14    16 1
    18    16    17 1
    19    17    18 1
    20    17    19 1
    21    19    21 2
    22    19    20 2
    23    19    22 1
    24    22    23 ar
    25    22    27 ar
    26    23    24 ar
    27    24    25 ar
    28    25    26 ar
    29    26    27 ar
    30    26    28 1
    31     1    29 1
    32     2    30 1
    33     3    31 1
    34     4    32 1
    35     5    33 1
    36     7    34 1
    37     7    35 1
    38    10    36 1
    39    10    37 1
    40    13    38 1
    41    18    39 1
    42    18    40 1
    43    18    41 1
    44    23    42 1
    45    27    43 1
    46    24    44 1
    47    25    45 1
    48    28    46 1
    49    28    47 1
    50    28    48 1
    51    49    10 1
@<TRIPOS>SUBSTRUCTURE
     1 BBE         1 TEMP              0 ****  ****    0 ROOT
