@<TRIPOS>MOLECULE
molecule
   12    12     1     0     0
SMALL
bcc


@<TRIPOS>ATOM
      1 F6           0.5190    -2.3690     0.0040 f          1 BBF      -0.093900
      2 C6          -0.1560    -1.1990     0.0040 ca         1 BBF       0.157900
      3 C1           0.5360     0.0000     0.0020 ca         1 BBF      -0.088900
      4 Br1          2.4270     0.0000    -0.0010 br         1 BBF      -0.011100
      5 C5          -1.5420    -1.2000     0.0000 ca         1 BBF       0.071900
      6 F5          -2.2170    -2.3700    -0.0030 f          1 BBF      -0.097900
      7 C4          -2.2350    -0.0000    -0.0000 ca         1 BBF       0.119900
      8 F4          -3.5860    -0.0000    -0.0030 f          1 BBF      -0.094900
      9 C3          -1.5420     1.2000     0.0030 ca         1 BBF       0.071900
     10 F3          -2.2170     2.3700     0.0030 f          1 BBF      -0.097900
     11 C2          -0.1560     1.1990     0.0010 ca         1 BBF       0.157900
     12 F2           0.5190     2.3690    -0.0020 f          1 BBF      -0.093900
@<TRIPOS>BOND
     1     1     2 1
     2     2     3 ar
     3     2     5 ar
     4     3     4 1
     5     3    11 ar
     6     5     6 1
     7     5     7 ar
     8     7     8 1
     9     7     9 ar
    10     9    10 1
    11     9    11 ar
    12    11    12 1
@<TRIPOS>SUBSTRUCTURE
     1 BBF         1 TEMP              0 ****  ****    0 ROOT
