@<TRIPOS>MOLECULE
BBF
   12    12     1     0     0
SMALL
bcc


@<TRIPOS>ATOM
      1 F6          0.4950   -2.4090    0.0020 f         1 BBF     -0.093900
      2 C6         -0.1330   -1.2140    0.0010 ca        1 BBF      0.154900
      3 C1          0.5870   -0.0000    0.0020 ca        1 BBF     -0.084900
      4 BR1         2.4600   -0.0000    0.0030 br        1 BBF     -0.004100
      5 C5         -1.5530   -1.2200    0.0000 ca        1 BBF      0.064900
      6 F5         -2.2180   -2.3940   -0.0000 f         1 BBF     -0.096900
      7 C4         -2.2670    0.0000   -0.0000 ca        1 BBF      0.120900
      8 F4         -3.6140    0.0000   -0.0010 f         1 BBF     -0.091900
      9 C3         -1.5530    1.2200    0.0000 ca        1 BBF      0.064900
     10 F3         -2.2180    2.3940   -0.0000 f         1 BBF     -0.096900
     11 C2         -0.1330    1.2140    0.0010 ca        1 BBF      0.154900
     12 F2          0.4960    2.4080    0.0010 f         1 BBF     -0.093900
@<TRIPOS>BOND
     1    1    2 1   
     2    2    3 ar  
     3    2    5 ar  
     4    3    4 1   
     5    3   11 ar  
     6    5    6 1   
     7    5    7 ar  
     8    7    8 1   
     9    7    9 ar  
    10    9   10 1   
    11    9   11 ar  
    12   11   12 1   
@<TRIPOS>SUBSTRUCTURE
     1 BBF         1 TEMP              0 ****  ****    0 ROOT
