@<TRIPOS>MOLECULE
BBH
   50    52     1     0     0
SMALL
bcc


@<TRIPOS>ATOM
      1 C1           0.0000     0.0000     0.0000 ca         1 BBH      -0.204500
      2 C2           1.3820     0.0000     0.0000 ca         1 BBH       0.043000
      3 C3           2.0740     0.0000     1.1960 ca         1 BBH      -0.217500
      4 C4           1.3800    -0.0000     2.3980 ca         1 BBH       0.187100
      5 C5          -0.0070    -0.0060     2.3950 ca         1 BBH      -0.217500
      6 C6          -0.6930     0.0000     1.1960 ca         1 BBH       0.043000
      7 O7           2.0580     0.0000     3.5750 os         1 BBH      -0.278900
      8 C8           1.0780     0.0010     4.6160 c3         1 BBH       0.216700
      9 S9          -0.8790    -0.0010    -1.5260 sy         1 BBH       1.059200
     10 O10         -2.1660     0.5240    -1.2310 o          1 BBH      -0.575800
     11 O11          0.0220     0.5250    -2.4900 o          1 BBH      -0.575800
     12 N12         -1.1250    -1.5800    -1.9550 n3         1 BBH      -0.543500
     13 C13         -0.2230    -2.2650    -2.8940 c3         1 BBH       0.142500
     14 C14          0.4190    -3.4440    -2.1480 c3         1 BBH      -0.102400
     15 C15         -0.6240    -4.1900    -1.3680 c          1 BBH       0.633500
     16 N16         -1.8020    -3.6740    -1.0160 n          1 BBH      -0.164800
     17 C17         -2.2570    -2.3460    -1.4170 c3         1 BBH       0.326200
     18 O18         -0.3810    -5.3320    -1.0400 o          1 BBH      -0.696500
     19 C            0.8470    -1.3120    -3.3600 c          1 BBH       0.592100
     20 NA           0.7910    -0.7890    -4.6000 ns         1 BBH      -0.009400
     21 OA           1.7980     0.1060    -5.0380 oh         1 BBH      -0.423100
     22 OB           1.7600    -1.0170    -2.6170 o          1 BBH      -0.636100
     23 C7          -2.6890    -4.4850    -0.1780 c3         1 BBH       0.113300
     24 C9          -4.0070    -7.3470    -2.2580 ca         1 BBH      -0.106000
     25 C10         -3.1840    -6.5810    -1.4530 ca         1 BBH      -0.084500
     26 C11         -3.5840    -5.3200    -1.0560 ca         1 BBH      -0.130300
     27 C12         -4.8090    -4.8250    -1.4620 ca         1 BBH      -0.084500
     28 C16         -5.6300    -5.5880    -2.2720 ca         1 BBH      -0.106000
     29 C18         -5.2290    -6.8500    -2.6680 ca         1 BBH      -0.095000
     30 HC21         1.9230     0.0000    -0.9380 ha         1 BBH       0.141500
     31 HC31         3.1570     0.0020     1.1950 ha         1 BBH       0.131000
     32 HC51        -0.5510    -0.0060     3.3320 ha         1 BBH       0.131000
     33 HC61        -1.7770    -0.0020     1.1930 ha         1 BBH       0.141500
     34 HC81         0.4570     0.8840     4.5280 h1         1 BBH       0.004033
     35 HC82         0.4610    -0.8850     4.5310 h1         1 BBH       0.004033
     36 HC83         1.5750     0.0040     5.5790 h1         1 BBH       0.004033
     37 H131        -0.7880    -2.6330    -3.7420 h1         1 BBH       0.025700
     38 H141         1.1740    -3.0680    -1.4670 hc         1 BBH       0.060700
     39 H142         0.8780    -4.1140    -2.8650 hc         1 BBH       0.060700
     40 H171        -3.0200    -2.4430    -2.1790 h2         1 BBH       0.023700
     41 H172        -2.6630    -1.8300    -0.5560 h2         1 BBH       0.023700
     42 HNA          0.0530    -1.0540    -5.2220 hn         1 BBH       0.146500
     43 HOA          1.8730     0.0610    -5.9760 ho         1 BBH       0.383000
     44 HC71        -2.0950    -5.1340     0.4540 h1         1 BBH       0.037200
     45 HC72        -3.2950    -3.8340     0.4410 h1         1 BBH       0.037200
     46 H101        -2.2260    -6.9710    -1.1310 ha         1 BBH       0.116500
     47 H121        -5.1240    -3.8360    -1.1510 ha         1 BBH       0.116500
     48 H161        -6.5900    -5.1990    -2.5910 ha         1 BBH       0.104000
     49 H181        -5.8720    -7.4490    -3.3010 ha         1 BBH       0.101000
     50 HC91        -3.6920    -8.3360    -2.5690 ha         1 BBH       0.104000
@<TRIPOS>BOND
     1     1     2 ar  
     2     1     6 ar  
     3     1     9 1   
     4     2     3 ar  
     5     2    30 1   
     6     3     4 ar  
     7     3    31 1   
     8     4     5 ar  
     9     4     7 1   
    10     5     6 ar  
    11     5    32 1   
    12     6    33 1   
    13     7     8 1   
    14     8    34 1   
    15     8    35 1   
    16     8    36 1   
    17     9    10 2   
    18     9    11 2   
    19     9    12 1   
    20    12    13 1   
    21    12    17 1   
    22    13    14 1   
    23    13    19 1   
    24    13    37 1   
    25    14    15 1   
    26    14    38 1   
    27    14    39 1   
    28    15    16 1   
    29    15    18 2   
    30    16    17 1   
    31    16    23 1   
    32    17    40 1   
    33    17    41 1   
    34    19    20 1   
    35    19    22 2   
    36    20    21 1   
    37    20    42 1   
    38    21    43 1   
    39    23    26 1   
    40    23    44 1   
    41    23    45 1   
    42    24    25 ar  
    43    24    29 ar  
    44    24    50 1   
    45    25    26 ar  
    46    25    46 1   
    47    26    27 ar  
    48    27    28 ar  
    49    27    47 1   
    50    28    29 ar  
    51    28    48 1   
    52    29    49 1   
@<TRIPOS>SUBSTRUCTURE
     1 BBH         1 TEMP              0 ****  ****    0 ROOT
