@<TRIPOS>MOLECULE
BBI
   61    63     1     0     0
SMALL
bcc


@<TRIPOS>ATOM
      1 CAA        -1.4890    1.2030    1.4360 c3        1 BBI     -0.094100
      2 CAB        -0.0760    1.0970    0.9240 c3        1 BBI     -0.079400
      3 CAC         0.8560    0.5620    1.9910 c3        1 BBI     -0.075400
      4 CAD         2.2730    0.4510    1.4580 c3        1 BBI     -0.048200
      5 CAE         3.2140   -0.0270    2.4880 cc        1 BBI      0.161900
      6 OAF         3.2790    0.7390    3.6550 os        1 BBI     -0.182200
      7 CAG         4.2170    0.1100    4.4820 ca        1 BBI      0.051100
      8 CAH         4.5770    0.5100    5.7630 ca        1 BBI     -0.102000
      9 CAI         5.5190   -0.2840    6.4160 ca        1 BBI     -0.112000
     10 CAJ         6.0610   -1.4240    5.8050 ca        1 BBI     -0.134000
     11 CAK         5.6920   -1.8120    4.5180 ca        1 BBI     -0.107000
     12 CAL         4.7620   -1.0380    3.8290 ca        1 BBI     -0.077800
     13 CAM         4.1040   -1.0970    2.5310 cd        1 BBI     -0.259400
     14 CAN         4.2700   -2.0870    1.4820 c         1 BBI      0.617900
     15 OAO         3.3690   -2.3700    0.6790 o         1 BBI     -0.522100
     16 CAP         5.5910   -2.7650    1.3550 ca        1 BBI     -0.146600
     17 CBE         6.7850   -2.0800    1.5910 ca        1 BBI     -0.027000
     18 CBC         8.0150   -2.7100    1.3970 ca        1 BBI     -0.002600
     19 IBD         9.6880   -1.6190    1.7280 i         1 BBI     -0.111900
     20 CAQ         5.6250   -4.0960    0.9210 ca        1 BBI     -0.027000
     21 CAR         6.8420   -4.7520    0.7350 ca        1 BBI     -0.002600
     22 IAS         6.7800   -6.6730    0.1000 i         1 BBI     -0.111900
     23 CAT         8.0330   -4.0470    0.9690 ca        1 BBI      0.146100
     24 OAU         9.2540   -4.6440    0.6550 os        1 BBI     -0.374900
     25 CAV         9.8500   -5.3730    1.7360 c3        1 BBI      0.104400
     26 CAW        10.8300   -6.3600    1.0930 c3        1 BBI      0.102800
     27 NAX        11.8100   -5.7110    0.1630 n4        1 BBI     -0.688400
     28 CBA        12.9230   -5.0530    0.9260 c3        1 BBI      0.112300
     29 CBB        13.6380   -3.9740    0.1410 c3        1 BBI     -0.133100
     30 CAY        12.3470   -6.7050   -0.8260 c3        1 BBI      0.112300
     31 CAZ        11.3980   -6.9930   -1.9700 c3        1 BBI     -0.133100
     32 H1         -2.1600    1.6010    0.6370 hc        1 BBI      0.038033
     33 H2         -1.8710    0.2020    1.7510 hc        1 BBI      0.038033
     34 H3         -1.5400    1.8900    2.3150 hc        1 BBI      0.038033
     35 H4          0.2800    2.1070    0.5870 hc        1 BBI      0.042200
     36 H5         -0.0480    0.4210    0.0290 hc        1 BBI      0.042200
     37 H6          0.5010   -0.4460    2.3300 hc        1 BBI      0.055700
     38 H7          0.8440    1.2410    2.8840 hc        1 BBI      0.055700
     39 H8          2.6170    1.4590    1.0950 hc        1 BBI      0.084200
     40 H9          2.3010   -0.2650    0.5900 hc        1 BBI      0.084200
     41 H10         4.1360    1.4000    6.2320 ha        1 BBI      0.162000
     42 H11         5.8380   -0.0140    7.4340 ha        1 BBI      0.146000
     43 H12         6.7930   -2.0300    6.3610 ha        1 BBI      0.135000
     44 H13         6.1190   -2.7140    4.0590 ha        1 BBI      0.131000
     45 H14         6.7410   -1.0300    1.9350 ha        1 BBI      0.182000
     46 H15         4.6670   -4.6090    0.7140 ha        1 BBI      0.182000
     47 H16        10.3640   -4.6470    2.4200 h1        1 BBI      0.084200
     48 H17         9.0820   -5.9570    2.3090 h1        1 BBI      0.084200
     49 H18        11.3980   -6.8960    1.9030 hx        1 BBI      0.112200
     50 H19        10.2380   -7.1120    0.4930 hx        1 BBI      0.112200
     51 H21        13.6470   -5.8580    1.2380 hx        1 BBI      0.099700
     52 H22        12.4720   -4.5960    1.8550 hx        1 BBI      0.099700
     53 H23        12.9360   -3.1690   -0.1910 hc        1 BBI      0.078700
     54 H24        14.1650   -4.3830   -0.7540 hc        1 BBI      0.078700
     55 H25        14.4050   -3.5100    0.8130 hc        1 BBI      0.078700
     56 H26        12.5870   -7.6530   -0.2650 hx        1 BBI      0.099700
     57 H27        13.3100   -6.2840   -1.2390 hx        1 BBI      0.099700
     58 H28        10.4490   -7.4680   -1.6200 hc        1 BBI      0.078700
     59 H29        11.9060   -7.7050   -2.6690 hc        1 BBI      0.078700
     60 H30        11.1440   -6.0650   -2.5400 hc        1 BBI      0.078700
     61 HAX1       11.3010   -4.9790   -0.3610 hn        1 BBI      0.468800
@<TRIPOS>BOND
     1    1    2 1
     2    1   32 1
     3    1   33 1
     4    1   34 1
     5    2    3 1
     6    2   35 1
     7    2   36 1
     8    3    4 1
     9    3   37 1
    10    3   38 1
    11    4    5 1
    12    4   39 1
    13    4   40 1
    14    5    6 1
    15    5   13 2
    16    6    7 1
    17    7    8 ar
    18    7   12 ar
    19    8    9 ar
    20    8   41 1
    21    9   10 ar
    22    9   42 1
    23   10   11 ar
    24   10   43 1
    25   11   12 ar
    26   11   44 1
    27   12   13 1
    28   13   14 1
    29   14   15 2
    30   14   16 1
    31   16   17 ar
    32   16   20 ar
    33   17   18 ar
    34   17   45 1
    35   18   19 1
    36   18   23 ar
    37   20   21 ar
    38   20   46 1
    39   21   22 1
    40   21   23 ar
    41   23   24 1
    42   24   25 1
    43   25   26 1
    44   25   47 1
    45   25   48 1
    46   26   27 1
    47   26   49 1
    48   26   50 1
    49   27   28 1
    50   27   30 1
    51   27   61 1
    52   28   29 1
    53   28   51 1
    54   28   52 1
    55   29   53 1
    56   29   54 1
    57   29   55 1
    58   30   31 1
    59   30   56 1
    60   30   57 1
    61   31   58 1
    62   31   59 1
    63   31   60 1
@<TRIPOS>SUBSTRUCTURE
     1 BBI         1 TEMP              0 ****  ****    0 ROOT
