@<TRIPOS>MOLECULE
BBL
   28    28     1     0     0
SMALL
bcc


@<TRIPOS>ATOM
      1 OG2          0.0000     0.0000     0.0000 o          1 BBL      -0.888800
      2 CB2          1.3430     0.0000     0.0000 c          1 BBL       0.975600
      3 OG1          1.9460    -0.0000    -1.0460 o          1 BBL      -0.888800
      4 CA           2.0960     0.0000     1.3050 c3         1 BBL      -0.092300
      5 CBZ          1.7270     1.2500     2.1070 c3         1 BBL       0.001900
      6 N            3.5360     0.0000     1.0370 ns         1 BBL      -0.110900
      7 C            4.3920    -0.4930     1.9530 c          1 BBL       0.655100
      8 O            3.9690    -0.9370     3.0030 o          1 BBL      -0.701000
      9 OEZ          5.7160    -0.4930     1.7070 os         1 BBL      -0.437900
     10 CB           6.6380    -1.0250     2.6950 c3         1 BBL       0.303700
     11 CG           8.0490    -0.9080     2.1790 ca         1 BBL      -0.099300
     12 CD1          8.7880     0.2300     2.4390 ca         1 BBL      -0.075500
     13 CE1         10.0830     0.3370     1.9660 ca         1 BBL      -0.112500
     14 CZ          10.6380    -0.6960     1.2320 ca         1 BBL      -0.105000
     15 CE2          9.8990    -1.8350     0.9720 ca         1 BBL      -0.112500
     16 CD2          8.6050    -1.9420     1.4500 ca         1 BBL      -0.075500
     17 HA           1.8350    -0.8840     1.8740 h1         1 BBL       0.053700
     18 HBZ1         2.2340     1.2290     3.0640 hc         1 BBL       0.000700
     19 HBZ2         0.6560     1.2730     2.2670 hc         1 BBL       0.000700
     20 HBZ3         2.0290     2.1340     1.5570 hc         1 BBL       0.000700
     21 HN           3.8870     0.3950     0.1870 hn         1 BBL       0.189500
     22 HB1          6.5430    -0.4640     3.6170 h1         1 BBL       0.006700
     23 HB2          6.4070    -2.0670     2.8810 h1         1 BBL       0.006700
     24 HD1          8.3530     1.0380     3.0140 ha         1 BBL       0.108500
     25 HE1         10.6620     1.2290     2.1700 ha         1 BBL       0.097500
     26 HZ          11.6520    -0.6120     0.8600 ha         1 BBL       0.094000
     27 HE2         10.3340    -2.6440     0.3990 ha         1 BBL       0.097500
     28 HD2          8.0250    -2.8340     1.2460 ha         1 BBL       0.108500
@<TRIPOS>BOND
     1     1     2 1   
     2     2     3 1   
     3     2     4 1   
     4     4     5 1   
     5     4     6 1   
     6     4    17 1   
     7     5    18 1   
     8     5    19 1   
     9     5    20 1   
    10     6     7 1   
    11     6    21 1   
    12     7     8 2   
    13     7     9 1   
    14     9    10 1   
    15    10    11 1   
    16    10    22 1   
    17    10    23 1   
    18    11    12 ar  
    19    11    16 ar  
    20    12    13 ar  
    21    12    24 1   
    22    13    14 ar  
    23    13    25 1   
    24    14    15 ar  
    25    14    26 1   
    26    15    16 ar  
    27    15    27 1   
    28    16    28 1   
@<TRIPOS>SUBSTRUCTURE
     1 BBL         1 TEMP              0 ****  ****    0 ROOT
