@<TRIPOS>MOLECULE
BBM
   40    41     1     0     0
SMALL
bcc


@<TRIPOS>ATOM
      1 O1           0.0000     0.0000     0.0000 o          1 BBM      -0.606100
      2 C7           1.2160     0.0000     0.0000 c          1 BBM       0.591700
      3 N2           1.8890     0.0000     1.1680 ns         1 BBM      -0.077400
      4 O4           1.1810     0.0000     2.3940 os         1 BBM      -0.236900
      5 C15          2.1590     0.0000     3.4360 c3         1 BBM       0.166400
      6 C16          1.4550     0.0010     4.7950 c3         1 BBM       0.184100
      7 C17          2.4980     0.1270     5.9090 c3         1 BBM       0.209400
      8 O3           1.8360     0.2440     7.1690 oh         1 BBM      -0.584800
      9 O2           0.7310    -1.2200     4.9570 oh         1 BBM      -0.573800
     10 C8           1.9530    -0.0000    -1.2740 ca         1 BBM      -0.137600
     11 C9           3.3470     0.1080    -1.2810 ca         1 BBM      -0.058000
     12 C10          4.0320     0.1080    -2.4750 ca         1 BBM      -0.002900
     13 Br           5.9180     0.2560    -2.4800 br         1 BBM      -0.063100
     14 C11          3.3450    -0.0010    -3.6780 ca         1 BBM       0.127900
     15 F1           4.0270    -0.0000    -4.8450 f          1 BBM      -0.102900
     16 C12          1.9660    -0.1090    -3.6880 ca         1 BBM       0.076900
     17 F2           1.3050    -0.2150    -4.8610 f          1 BBM      -0.100900
     18 C13          1.2610    -0.1150    -2.4900 ca         1 BBM       0.065600
     19 N           -0.1270    -0.2250    -2.4960 nu         1 BBM      -0.238000
     20 C3          -0.9180     0.9200    -2.6450 ca         1 BBM       0.055600
     21 C26         -2.2970     0.8000    -2.7760 ca         1 BBM       0.045900
     22 F3          -2.8760    -0.4210    -2.7560 f          1 BBM      -0.124900
     23 C4          -0.3280     2.1750    -2.6660 ca         1 BBM      -0.162000
     24 C5          -1.1110     3.3030    -2.8130 ca         1 BBM      -0.045000
     25 C6          -2.4840     3.1840    -2.9380 ca         1 BBM       0.170900
     26 I           -3.6670     4.8970    -3.1600 i          1 BBM      -0.294900
     27 C1          -3.0760     1.9340    -2.9180 ca         1 BBM      -0.069000
     28 HN2          2.8900    -0.0230     1.1690 hn         1 BBM       0.172500
     29 H151         2.7780    -0.8840     3.3510 h1         1 BBM       0.006200
     30 H152         2.7790     0.8850     3.3500 h1         1 BBM       0.006200
     31 H16          0.7690     0.8370     4.8470 h1         1 BBM       0.021700
     32 H171         3.1300    -0.7530     5.9130 h1         1 BBM      -0.007800
     33 H172         3.1060     1.0070     5.7370 h1         1 BBM      -0.007800
     34 HO3          2.4730     0.4050     7.8450 ho         1 BBM       0.394000
     35 HO2         -0.1780    -1.0280     5.1170 ho         1 BBM       0.404000
     36 H9           3.8850     0.2250    -0.3480 ha         1 BBM       0.121000
     37 HN          -0.5570    -1.1260    -2.4370 hn         1 BBM       0.313800
     38 H4           0.7470     2.2710    -2.5690 ha         1 BBM       0.115000
     39 H5          -0.6500     4.2830    -2.8300 ha         1 BBM       0.115000
     40 H1          -4.1510     1.8430    -3.0190 ha         1 BBM       0.129000
@<TRIPOS>BOND
     1     1     2 2   
     2     2     3 1   
     3     2    10 1   
     4     3     4 1   
     5     3    28 1   
     6     4     5 1   
     7     5     6 1   
     8     5    29 1   
     9     5    30 1   
    10     6     7 1   
    11     6     9 1   
    12     6    31 1   
    13     7     8 1   
    14     7    32 1   
    15     7    33 1   
    16     8    34 1   
    17     9    35 1   
    18    10    11 ar  
    19    10    18 ar  
    20    11    12 ar  
    21    11    36 1   
    22    12    13 1   
    23    12    14 ar  
    24    14    15 1   
    25    14    16 ar  
    26    16    17 1   
    27    16    18 ar  
    28    18    19 1   
    29    19    20 1   
    30    19    37 1   
    31    20    21 ar  
    32    20    23 ar  
    33    21    22 1   
    34    21    27 ar  
    35    23    24 ar  
    36    23    38 1   
    37    24    25 ar  
    38    24    39 1   
    39    25    26 1   
    40    25    27 ar  
    41    27    40 1   
@<TRIPOS>SUBSTRUCTURE
     1 BBM         1 TEMP              0 ****  ****    0 ROOT
