@<TRIPOS>MOLECULE
BBP
   36    38     1     0     0
SMALL
bcc


@<TRIPOS>ATOM
      1 Cl1          0.0000     0.0000     0.0000 cl         1 BBP      -0.023400
      2 C4           1.7370     0.0000     0.0000 ca         1 BBP      -0.047600
      3 C3           2.4300     0.0000     1.2020 ca         1 BBP      -0.089000
      4 C2           3.8030     0.0010     1.2170 ca         1 BBP      -0.057000
      5 C5           2.4260    -0.0040    -1.1930 ca         1 BBP      -0.033000
      6 C6           3.8190    -0.0030    -1.1970 ca         1 BBP      -0.037100
      7 S1           4.9750    -0.0090    -2.5260 ss         1 BBP      -0.195100
      8 C7           4.5300     0.0020     0.0070 ca         1 BBP       0.120400
      9 N1           5.8660     0.0020    -0.1730 nc         1 BBP      -0.548100
     10 C1           6.3110    -0.0030    -1.3820 cd         1 BBP       0.558100
     11 N2           7.6470    -0.0030    -1.7310 nh         1 BBP      -0.100700
     12 C8           8.7790    -0.0050    -0.7890 c3         1 BBP       0.353300
     13 O1           8.7600     1.1700     0.0230 oh         1 BBP      -0.571800
     14 N3           8.1470    -0.0090    -3.0310 n2         1 BBP      -0.449400
     15 C10          9.4150    -0.0080    -3.1080 c2         1 BBP       0.342300
     16 C9          10.0110    -0.0050    -1.7180 c3         1 BBP      -0.139700
     17 C11         10.2060    -0.0140    -4.3910 c3         1 BBP      -0.070300
     18 C12          9.2450    -0.0190    -5.5820 c3         1 BBP       0.007233
     19 C13         11.0870     1.2360    -4.4520 c3         1 BBP       0.007233
     20 C14         11.0880    -1.2630    -4.4400 c3         1 BBP       0.007233
     21 H3           1.8830    -0.0010     2.1380 ha         1 BBP       0.115000
     22 H2           4.3310     0.0010     2.1630 ha         1 BBP       0.115000
     23 H5           1.8840    -0.0080    -2.1300 ha         1 BBP       0.120000
     24 HO1          9.1300     0.9740     0.8680 ho         1 BBP       0.402000
     25 H9          10.6030     0.8890    -1.5630 hc         1 BBP       0.050200
     26 H9A         10.6050    -0.8960    -1.5590 hc         1 BBP       0.050200
     27 H312         8.6220    -0.9040    -5.5390 hc         1 BBP       0.010256
     28 H212         9.8140    -0.0230    -6.5040 hc         1 BBP       0.010256
     29 H112         8.6210     0.8650    -5.5470 hc         1 BBP       0.010256
     30 H313        11.5210     1.3230    -5.4410 hc         1 BBP       0.010256
     31 H213        10.4860     2.1120    -4.2420 hc         1 BBP       0.010256
     32 H113        11.8780     1.1560    -3.7160 hc         1 BBP       0.010256
     33 H314        11.5210    -1.3610    -5.4280 hc         1 BBP       0.010256
     34 H214        10.4880    -2.1380    -4.2200 hc         1 BBP       0.010256
     35 H114        11.8800    -1.1750    -3.7060 hc         1 BBP       0.010256
     36 H8           8.7640    -0.9000    -0.1790 h2         1 BBP       0.021700
@<TRIPOS>BOND
     1     1     2 1   
     2     2     3 ar  
     3     2     5 ar  
     4     3     4 ar  
     5     3    21 1   
     6     4     8 ar  
     7     4    22 1   
     8     5     6 ar  
     9     5    23 1   
    10     6     7 1   
    11     6     8 ar  
    12     7    10 1   
    13     8     9 1   
    14     9    10 2   
    15    10    11 1   
    16    11    12 1   
    17    11    14 1   
    18    12    13 1   
    19    12    16 1   
    20    12    36 1   
    21    13    24 1   
    22    14    15 2   
    23    15    16 1   
    24    15    17 1   
    25    16    25 1   
    26    16    26 1   
    27    17    18 1   
    28    17    19 1   
    29    17    20 1   
    30    18    27 1   
    31    18    28 1   
    32    18    29 1   
    33    19    30 1   
    34    19    31 1   
    35    19    32 1   
    36    20    33 1   
    37    20    34 1   
    38    20    35 1   
@<TRIPOS>SUBSTRUCTURE
     1 BBP         1 TEMP              0 ****  ****    0 ROOT
