@<TRIPOS>MOLECULE
BBR
   14    13     1     0     0
SMALL
bcc


@<TRIPOS>ATOM
      1 P           0.7020    0.3840   -0.4520 p5        1 BBR      1.312900
      2 O1P         1.7400    0.9350    0.4880 o         1 BBR     -0.917167
      3 O2P        -0.0690   -0.8160    0.0040 o         1 BBR     -0.917167
      4 O3P         1.0770    0.4530   -1.9130 o         1 BBR     -0.917167
      5 O1         -0.4980    1.6550   -0.4300 os        1 BBR     -0.553200
      6 C1         -0.0210    2.9140   -0.2100 c3        1 BBR      0.129400
      7 C2         -0.0870    3.8020   -1.4540 c         1 BBR      0.548100
      8 O3         -0.4780    4.9810   -1.3930 o         1 BBR     -0.639100
      9 C3          0.4380    3.1650   -2.6970 c3        1 BBR     -0.125000
     10 BR         -0.2760    3.8130   -4.3850 br        1 BBR     -0.294400
     11 H1C1        1.0610    2.8900    0.1240 h1        1 BBR      0.030200
     12 H1C2       -0.6430    3.4290    0.5820 h1        1 BBR      0.030200
     13 H3C1        1.5400    3.3220   -2.7550 h1        1 BBR      0.156200
     14 H3C2        0.2760    2.0250   -2.6280 h1        1 BBR      0.156200
@<TRIPOS>BOND
     1    1    2 1   
     2    1    3 1   
     3    1    4 1   
     4    1    5 1   
     5    5    6 1   
     6    6    7 1   
     7    6   11 1   
     8    6   12 1   
     9    7    8 2   
    10    7    9 1   
    11    9   10 1   
    12    9   13 1   
    13    9   14 1   
@<TRIPOS>SUBSTRUCTURE
     1 BBR         1 TEMP              0 ****  ****    0 ROOT
