@<TRIPOS>MOLECULE
molecule
   14    13     1     0     0
SMALL
bcc


@<TRIPOS>ATOM
      1 P            0.0000     0.0000     0.0000 p5         1 BBR       1.315900
      2 O1P          1.5200     0.0000     0.0000 o          1 BBR      -0.939833
      3 O2P         -0.7450     0.0000     1.3190 o          1 BBR      -0.939833
      4 O3P         -0.5880    -0.9360    -1.0050 o          1 BBR      -0.939833
      5 O1          -0.4090     1.4580    -0.5670 os         1 BBR      -0.544200
      6 C1           0.5210     2.5140    -0.7200 c3         1 BBR       0.187400
      7 C2           0.0470     3.6520    -1.5720 c          1 BBR       0.533100
      8 O3          -1.1850     4.2820    -1.3090 o          1 BBR      -0.635100
      9 C3           0.7700     4.1880    -2.7880 c3         1 BBR      -0.286000
     10 Br           0.1400     3.6120    -4.0220 br         1 BBR       0.042600
     11 H1C1         1.4250     2.1110    -1.1620 h1         1 BBR       0.031700
     12 H1C2         0.7630     2.9010     0.2620 h1         1 BBR       0.031700
     13 H3C1         0.6900     5.2690    -2.8110 h1         1 BBR       0.070700
     14 H3C2         1.8130     3.9020    -2.7450 h1         1 BBR       0.070700
@<TRIPOS>BOND
     1     1     2 1
     2     1     3 1
     3     1     4 1
     4     1     5 1
     5     5     6 1
     6     6     7 1
     7     7     8 2
     8     7     9 1
     9     9    10 1
    10     6    11 1
    11     6    12 1
    12     9    13 1
    13     9    14 1
@<TRIPOS>SUBSTRUCTURE
     1 BBR         1 TEMP              0 ****  ****    0 ROOT
