@<TRIPOS>MOLECULE
molecule
   27    27     1     0     0
SMALL
bcc


@<TRIPOS>ATOM
      1 C1           0.0000     0.0000     0.0000 c3         1 BBS      -0.078433
      2 C2           1.5300     0.0000     0.0000 c3         1 BBS      -0.020700
      3 C3           2.0390     0.0000     1.4420 c3         1 BBS      -0.078433
      4 C4           2.0380    -1.2500    -0.7200 c3         1 BBS      -0.078433
      5 CD2          3.3910     1.4470    -0.8390 ca         1 BBS      -0.168500
      6 CE2          3.8520     2.5750    -1.4910 ca         1 BBS      -0.036000
      7 CZ           2.9540     3.4850    -2.0170 ca         1 BBS      -0.259500
      8 CE1          1.5950     3.2660    -1.8910 ca         1 BBS      -0.036000
      9 CD1          1.1340     2.1350    -1.2430 ca         1 BBS      -0.168500
     10 CG           2.0320     1.2290    -0.7120 ca         1 BBS      -0.067300
     11 O1           2.4800     5.8660    -2.7860 o          1 BBS      -0.712200
     12 O2           4.8590     5.1380    -2.3630 o          1 BBS      -0.712200
     13 O3           3.6950     4.5690    -4.3190 o          1 BBS      -0.712200
     14 H11         -0.3610     0.8860     0.5080 hc         1 BBS       0.031033
     15 H12         -0.3610    -0.0030    -1.0210 hc         1 BBS       0.031033
     16 H13         -0.3610    -0.8830     0.5130 hc         1 BBS       0.031033
     17 H31          1.5610    -0.8000     1.9940 hc         1 BBS       0.031033
     18 H32          3.1120    -0.1500     1.4460 hc         1 BBS       0.031033
     19 H33          1.8050     0.9500     1.9070 hc         1 BBS       0.031033
     20 H41          3.1110    -1.3290    -0.5930 hc         1 BBS       0.031033
     21 H42          1.5590    -2.1270    -0.3030 hc         1 BBS       0.031033
     22 H43          1.8040    -1.1790    -1.7760 hc         1 BBS       0.031033
     23 HD2          4.0950     0.7340    -0.4270 ha         1 BBS       0.112500
     24 HE2          4.9170     2.7460    -1.5900 ha         1 BBS       0.148000
     25 HE1          0.8910     3.9780    -2.3050 ha         1 BBS       0.148000
     26 HD1          0.0690     1.9640    -1.1440 ha         1 BBS       0.112500
     27 S            3.5410     4.9230    -2.8470 s6         1 BBS       1.326100
@<TRIPOS>BOND
     1     1     2 1
     2     1    14 1
     3     1    15 1
     4     1    16 1
     5     2     3 1
     6     2     4 1
     7     2    10 1
     8     3    17 1
     9     3    18 1
    10     3    19 1
    11     4    20 1
    12     4    21 1
    13     4    22 1
    14     5     6 ar
    15     5    10 ar
    16     5    23 1
    17     6     7 ar
    18     6    24 1
    19     7     8 ar
    20     7    27 1
    21     8     9 ar
    22     8    25 1
    23     9    10 ar
    24     9    26 1
    25    27    11 1
    26    27    12 1
    27    27    13 1
@<TRIPOS>SUBSTRUCTURE
     1 BBS         1 TEMP              0 ****  ****    0 ROOT
