@<TRIPOS>MOLECULE
BBS
   27    26     1     0     0
SMALL
bcc


@<TRIPOS>ATOM
      1 C1         -0.0670    0.2870   -0.3910 c3        1 BBS     -0.200000
      2 C2          1.4460    0.1790   -0.2260 c3        1 BBS      0.005000
      3 C3          1.7490   -0.6020    1.0490 c3        1 BBS     -0.200000
      4 C4          2.0200   -0.5670   -1.4280 c3        1 BBS     -0.200000
      5 CD2         3.5470    1.7290   -0.0080 c3        1 BBS     -0.140000
      6 CE2         4.0530    2.8140   -0.8770 c1        1 BBS     -0.126000
      7 CZ          3.2080    3.7520   -1.4860 c2        1 BBS     -0.623000
      8 CE1         1.8840    3.8720   -0.8130 c2        1 BBS     -0.071000
      9 CD1         1.4350    2.6980   -0.3800 c1        1 BBS     -0.257000
     10 CG          2.0460    1.5420   -0.1420 c2        1 BBS     -0.096000
     11 O1          1.9360    4.0270   -3.8910 o         1 BBS     -1.021667
     12 O2          4.2540    3.7970   -4.0280 o         1 BBS     -1.021667
     13 O3          2.9130    1.9050   -3.6070 o         1 BBS     -1.021667
     14 H11        -0.5070    0.8600    0.4590 hc        1 BBS      0.070111
     15 H12        -0.3040    0.8260   -1.3400 hc        1 BBS      0.070111
     16 H13        -0.5280   -0.7290   -0.4210 hc        1 BBS      0.070111
     17 H31         1.2660   -0.1130    1.9270 hc        1 BBS      0.070111
     18 H32         2.8500   -0.6420    1.2250 hc        1 BBS      0.070111
     19 H33         1.3610   -1.6450    0.9610 hc        1 BBS      0.070111
     20 H41         3.0600   -0.9120   -1.2150 hc        1 BBS      0.070111
     21 H42         1.3940   -1.4620   -1.6580 hc        1 BBS      0.070111
     22 H43         2.0480    0.1060   -2.3230 hc        1 BBS      0.070111
     23 HD2         4.0480    0.7670   -0.2980 hc        1 BBS      0.106500
     24 HE2         3.8590    1.9770    1.0410 hc        1 BBS      0.106500
     25 HE1         3.6730    4.7360   -1.7090 ha        1 BBS      0.148000
     26 HD1         1.4490    4.8550   -0.6240 ha        1 BBS      0.123000
     27 S           3.0560    3.2800   -3.5670 s4        1 BBS      2.857000
@<TRIPOS>BOND
     1    1    2 1   
     2    1   14 1   
     3    1   15 1   
     4    1   16 1   
     5    2    3 1   
     6    2    4 1   
     7    2   10 1   
     8    3   17 1   
     9    3   18 1   
    10    3   19 1   
    11    4   20 1   
    12    4   21 1   
    13    4   22 1   
    14    5    6 1   
    15    5   10 1   
    16    5   23 1   
    17    5   24 1   
    18    6    7 1   
    19    7    8 1   
    20    7   25 1   
    21    8    9 1   
    22    8   26 1   
    23    9   10 1   
    24   11   27 1   
    25   12   27 1   
    26   13   27 1   
@<TRIPOS>SUBSTRUCTURE
     1 BBS         1 TEMP              0 ****  ****    0 ROOT
