@<TRIPOS>MOLECULE
BBT
   45    47     1     0     0
SMALL
bcc


@<TRIPOS>ATOM
      1 N1           0.0000     0.0000     0.0000 ne         1 BBT      -0.698100
      2 C2           1.3110     0.0000     0.0000 c2         1 BBT       0.588200
      3 O2           1.9340     0.0010    -1.1930 oh         1 BBT      -0.576600
      4 N3           2.0880     0.0000     1.1150 ns         1 BBT      -0.072400
      5 C4           1.5450    -0.0000     2.3520 c          1 BBT       0.632500
      6 O4           2.2380    -0.0010     3.3470 o          1 BBT      -0.574500
      7 C5           0.0300    -0.0010     2.4440 c3         1 BBT      -0.030500
      8 C6          -0.7190     0.0000     1.1250 c          1 BBT       0.712500
      9 O6          -1.9340    -0.0010     1.0930 o          1 BBT      -0.526100
     10 NP1         -0.3820     1.1870     3.2040 n3         1 BBT      -0.471600
     11 CP2         -0.0890     2.3500     2.3610 c3         1 BBT       0.084300
     12 CP3         -0.5000     3.6320     3.0860 c3         1 BBT      -0.019400
     13 CP4         -2.0080     3.5990     3.3520 c3         1 BBT      -0.053700
     14 CP5         -2.3500     2.3240     4.1260 c3         1 BBT      -0.019400
     15 CP6         -1.8390     1.1090     3.3470 c3         1 BBT       0.084300
     16 CP7         -2.4110     4.8230     4.1770 c3         1 BBT      -0.033400
     17 CP8         -3.9160     4.7840     4.4450 c3         1 BBT       0.216400
     18 OP9         -4.2910     5.9280     5.2160 oh         1 BBT      -0.594800
     19 CG          -0.3940    -1.2200     3.2180 ca         1 BBT      -0.100300
     20 CD1         -0.8080    -2.3560     2.5480 ca         1 BBT      -0.078000
     21 CD2         -0.3620    -1.2070     4.6000 ca         1 BBT      -0.078000
     22 CE1         -1.1960    -3.4750     3.2600 ca         1 BBT      -0.102000
     23 CE2         -0.7540    -2.3240     5.3120 ca         1 BBT      -0.102000
     24 CZ          -1.1690    -3.4600     4.6410 ca         1 BBT      -0.089000
     25 HO2          1.8000    -0.8300    -1.6180 ho         1 BBT       0.440000
     26 H3           3.0840     0.0000     1.0170 hn         1 BBT       0.195500
     27 HP21         0.9740     2.3820     2.1510 h1         1 BBT       0.039700
     28 HP22        -0.6420     2.2700     1.4330 h1         1 BBT       0.039700
     29 HP31        -0.2620     4.4890     2.4670 hc         1 BBT       0.025200
     30 HP32         0.0310     3.7000     4.0270 hc         1 BBT       0.025200
     31 HP4         -2.5410     3.6010     2.4080 hc         1 BBT       0.031700
     32 HP51        -1.8740     2.3540     5.0990 hc         1 BBT       0.025200
     33 HP52        -3.4240     2.2500     4.2450 hc         1 BBT       0.025200
     34 HP61        -2.0990     0.2050     3.8830 h1         1 BBT       0.039700
     35 HP62        -2.2960     1.0960     2.3650 h1         1 BBT       0.039700
     36 HP71        -2.1650     5.7250     3.6300 hc         1 BBT       0.025200
     37 HP72        -1.8760     4.8150     5.1190 hc         1 BBT       0.025200
     38 HP81        -4.1620     3.8830     4.9920 h1         1 BBT      -0.011300
     39 HP82        -4.4510     4.7930     3.5030 h1         1 BBT      -0.011300
     40 HO9         -5.2300     5.9590     5.2970 ho         1 BBT       0.389000
     41 HD1         -0.8290    -2.3680     1.4650 ha         1 BBT       0.122000
     42 HD2         -0.0370    -0.3170     5.1250 ha         1 BBT       0.122000
     43 HE1         -1.5210    -4.3650     2.7340 ha         1 BBT       0.106000
     44 HE2         -0.7310    -2.3130     6.3950 ha         1 BBT       0.106000
     45 HZ          -1.4750    -4.3370     5.1980 ha         1 BBT       0.103000
@<TRIPOS>BOND
     1     1     2 2   
     2     1     8 1   
     3     2     3 1   
     4     2     4 1   
     5     3    25 1   
     6     4     5 1   
     7     4    26 1   
     8     5     6 2   
     9     5     7 1   
    10     7     8 1   
    11     7    10 1   
    12     7    19 1   
    13     8     9 2   
    14    10    11 1   
    15    10    15 1   
    16    11    12 1   
    17    11    27 1   
    18    11    28 1   
    19    12    13 1   
    20    12    29 1   
    21    12    30 1   
    22    13    14 1   
    23    13    16 1   
    24    13    31 1   
    25    14    15 1   
    26    14    32 1   
    27    14    33 1   
    28    15    34 1   
    29    15    35 1   
    30    16    17 1   
    31    16    36 1   
    32    16    37 1   
    33    17    18 1   
    34    17    38 1   
    35    17    39 1   
    36    18    40 1   
    37    19    20 ar  
    38    19    21 ar  
    39    20    22 ar  
    40    20    41 1   
    41    21    23 ar  
    42    21    42 1   
    43    22    24 ar  
    44    22    43 1   
    45    23    24 ar  
    46    23    44 1   
    47    24    45 1   
@<TRIPOS>SUBSTRUCTURE
     1 BBT         1 TEMP              0 ****  ****    0 ROOT
