@<TRIPOS>MOLECULE
BBU
   14    13     1     0     0
SMALL
bcc


@<TRIPOS>ATOM
      1 Br1         0.0390   -0.0040   -0.0960 br        1 BBU     -0.179400
      2 C1          1.9620   -0.0020    0.0240 c3        1 BBU     -0.009000
      3 C2          2.4710   -0.0010    1.4430 c3        1 BBU     -0.082400
      4 C3          3.9870    0.0010    1.4610 c3        1 BBU     -0.081400
      5 C4          4.5170    0.0020    2.8720 c3        1 BBU     -0.093100
      6 H11         2.3100    0.9070   -0.5210 h1        1 BBU      0.071700
      7 H12         2.3120   -0.9100   -0.5210 h1        1 BBU      0.071700
      8 H21         2.0910    0.9030    1.9900 hc        1 BBU      0.055700
      9 H22         2.0930   -0.9050    1.9900 hc        1 BBU      0.055700
     10 H31         4.3700   -0.9020    0.9150 hc        1 BBU      0.040700
     11 H32         4.3680    0.9040    0.9140 hc        1 BBU      0.040700
     12 H41         4.1680   -0.9030    3.4250 hc        1 BBU      0.035700
     13 H42         5.6340    0.0030    2.8650 hc        1 BBU      0.035700
     14 H43         4.1660    0.9070    3.4240 hc        1 BBU      0.035700
@<TRIPOS>BOND
     1    1    2 1   
     2    2    3 1   
     3    2    6 1   
     4    2    7 1   
     5    3    4 1   
     6    3    8 1   
     7    3    9 1   
     8    4    5 1   
     9    4   10 1   
    10    4   11 1   
    11    5   12 1   
    12    5   13 1   
    13    5   14 1   
@<TRIPOS>SUBSTRUCTURE
     1 BBU         1 TEMP              0 ****  ****    0 ROOT
