@<TRIPOS>MOLECULE
molecule
   14    13     1     0     0
SMALL
bcc


@<TRIPOS>ATOM
      1 Br1          0.0000     0.0000     0.0000 br         1 BBU      -0.187400
      2 C1           1.9650     0.0000     0.0000 c3         1 BBU       0.005000
      3 C2           2.4760     0.0000     1.4420 c3         1 BBU      -0.084400
      4 C3           4.0050    -0.0000     1.4420 c3         1 BBU      -0.085400
      5 C4           4.5160     0.0000     2.8840 c3         1 BBU      -0.090100
      6 H11          2.3260    -0.8840    -0.5110 h1         1 BBU       0.069700
      7 H12          2.3260     0.8840    -0.5110 h1         1 BBU       0.069700
      8 H21          2.1150    -0.8840     1.9530 hc         1 BBU       0.055700
      9 H22          2.1150     0.8840     1.9530 hc         1 BBU       0.055700
     10 H31          4.3660    -0.8840     0.9310 hc         1 BBU       0.041700
     11 H32          4.3660     0.8840     0.9310 hc         1 BBU       0.041700
     12 H41          5.6000    -0.0000     2.8830 hc         1 BBU       0.035700
     13 H42          4.1560     0.8850     3.3950 hc         1 BBU       0.035700
     14 H43          4.1560    -0.8850     3.3950 hc         1 BBU       0.035700
@<TRIPOS>BOND
     1     1     2 1
     2     2     3 1
     3     2     6 1
     4     2     7 1
     5     3     4 1
     6     3     8 1
     7     3     9 1
     8     4     5 1
     9     4    10 1
    10     4    11 1
    11     5    12 1
    12     5    13 1
    13     5    14 1
@<TRIPOS>SUBSTRUCTURE
     1 BBU         1 TEMP              0 ****  ****    0 ROOT
