@<TRIPOS>MOLECULE
molecule
   43    44     1     0     0
SMALL
bcc


@<TRIPOS>ATOM
      1 C1           0.0000     0.0000     0.0000 c3         1 BBV       0.317900
      2 O1          -0.4760    -1.1940     0.6250 os         1 BBV      -0.449600
      3 C2           1.5310     0.0000     0.0000 c3         1 BBV       0.098700
      4 N2           2.0220    -1.1960    -0.6880 ns         1 BBV      -0.570900
      5 C3           2.0340     0.0000     1.4470 c3         1 BBV       0.116100
      6 O3           3.4620     0.0720     1.4570 oh         1 BBV      -0.602800
      7 C4           1.4530     1.2140     2.1780 c3         1 BBV       0.108100
      8 O4           1.8570     1.1850     3.5480 oh         1 BBV      -0.602800
      9 C5          -0.0750     1.1670     2.0940 c3         1 BBV       0.141100
     10 O5          -0.4750     1.1380     0.7220 os         1 BBV      -0.417600
     11 C6          -0.6620     2.4080     2.7700 c3         1 BBV       0.150400
     12 O6          -2.0870     2.3070     2.7950 oh         1 BBV      -0.602800
     13 C7           2.1500    -1.1970    -2.0300 c          1 BBV       0.659100
     14 O7           1.8610    -0.2060    -2.6670 o          1 BBV      -0.613100
     15 C8           2.6540    -2.4280    -2.7390 c3         1 BBV      -0.169100
     16 C1'         -2.2720    -2.6840     1.1720 ca         1 BBV      -0.090300
     17 C2'         -2.6470    -2.6630     2.5030 ca         1 BBV      -0.107500
     18 C3'         -2.2610    -3.8780     0.4750 ca         1 BBV      -0.107500
     19 C4'         -3.0100    -3.8370     3.1370 ca         1 BBV      -0.133500
     20 C5'         -2.6240    -5.0510     1.1110 ca         1 BBV      -0.133500
     21 C6'         -3.0000    -5.0310     2.4400 ca         1 BBV      -0.122000
     22 C7'         -1.8820    -1.4040     0.4790 c3         1 BBV       0.183700
     23 H1          -0.3590     0.0470    -1.0210 h2         1 BBV       0.098700
     24 H2           1.8910     0.8880    -0.5060 h1         1 BBV       0.108700
     25 HN2          2.3080    -1.9950    -0.1580 hn         1 BBV       0.319500
     26 H3           1.7090    -0.9080     1.9410 h1         1 BBV       0.066700
     27 HO3          3.8080    -0.6260     1.9880 ho         1 BBV       0.409000
     28 H4           1.8120     2.1220     1.7100 h1         1 BBV       0.056700
     29 HO4          2.5170     1.8420     3.6950 ho         1 BBV       0.412000
     30 H5          -0.4350     0.2750     2.5920 h1         1 BBV       0.075700
     31 H6          -0.3720     3.2920     2.2160 h1         1 BBV       0.034700
     32 H6A         -0.2870     2.4780     3.7840 h1         1 BBV       0.034700
     33 HO6         -2.4440     3.0190     3.3010 ho         1 BBV       0.403000
     34 H8           3.6110    -2.7170    -2.3230 hc         1 BBV       0.062033
     35 H8A          1.9440    -3.2360    -2.6070 hc         1 BBV       0.062033
     36 H8B          2.7670    -2.2150    -3.7950 hc         1 BBV       0.062033
     37 H2'         -2.6550    -1.7280     3.0490 ha         1 BBV       0.134500
     38 H3'         -1.9670    -3.8940    -0.5670 ha         1 BBV       0.134500
     39 H4'         -3.3040    -3.8210     4.1800 ha         1 BBV       0.130000
     40 H5'         -2.6160    -5.9870     0.5650 ha         1 BBV       0.130000
     41 H6'         -3.2840    -5.9500     2.9370 ha         1 BBV       0.129000
     42 H7'         -2.1300    -1.4730    -0.5730 h1         1 BBV       0.044200
     43 H7'A        -2.4190    -0.5750     0.9230 h1         1 BBV       0.044200
@<TRIPOS>BOND
     1    10     1 1
     2     3     1 1
     3     1     2 1
     4     1    23 1
     5     2    22 1
     6     5     3 1
     7     3     4 1
     8     3    24 1
     9    13     4 1
    10     4    25 1
    11     7     5 1
    12     6     5 1
    13     5    26 1
    14     6    27 1
    15     8     7 1
    16     7     9 1
    17     7    28 1
    18     8    29 1
    19    11     9 1
    20     9    10 1
    21     9    30 1
    22    11    12 1
    23    11    31 1
    24    11    32 1
    25    12    33 1
    26    14    13 2
    27    13    15 1
    28    15    34 1
    29    15    35 1
    30    15    36 1
    31    22    16 1
    32    16    17 ar
    33    16    18 ar
    34    17    19 ar
    35    17    37 1
    36    18    20 ar
    37    18    38 1
    38    19    21 ar
    39    19    39 1
    40    20    21 ar
    41    20    40 1
    42    21    41 1
    43    22    42 1
    44    22    43 1
@<TRIPOS>SUBSTRUCTURE
     1 BBV         1 TEMP              0 ****  ****    0 ROOT
