@<TRIPOS>MOLECULE
BBW
   21    22     1     0     0
SMALL
bcc


@<TRIPOS>ATOM
      1 N1           0.0000     0.0000     0.0000 nv         1 BBW      -0.651500
      2 C1           1.3780     0.0000     0.0000 ca         1 BBW       0.558200
      3 C2           2.1050     0.0000     1.2170 ca         1 BBW      -0.288600
      4 C3           1.4700    -0.0010     2.4620 ca         1 BBW      -0.058000
      5 N2           2.0610    -0.0040    -1.1370 nb         1 BBW      -0.652000
      6 C4           3.3840    -0.0040    -1.1490 ca         1 BBW       0.636900
      7 N3           4.1080    -0.0000    -0.0560 nb         1 BBW      -0.621000
      8 C5           3.5200    -0.0000     1.1500 ca         1 BBW       0.406600
      9 C6           4.2630     0.0050     2.3370 ca         1 BBW      -0.156300
     10 C7           3.6140     0.0040     3.5370 ca         1 BBW      -0.064300
     11 C8           4.4140     0.0090     4.8140 c3         1 BBW       0.058200
     12 C9           2.2240    -0.0020     3.6000 ca         1 BBW      -0.104000
     13 H1          -0.5000     0.8650    -0.0630 hn         1 BBW       0.281800
     14 H2          -0.5000    -0.8670     0.0220 hn         1 BBW       0.281800
     15 H3           0.3890    -0.0060     2.5240 ha         1 BBW       0.112000
     16 H4           3.8920    -0.0070    -2.1060 h5         1 BBW      -0.004900
     17 H5           5.3380     0.1350     2.3030 ha         1 BBW       0.124000
     18 H6           3.7630    -0.2190     5.6490 hc         1 BBW       0.010700
     19 H7           5.1970    -0.7370     4.7520 hc         1 BBW       0.010700
     20 H8           4.8580     0.9870     4.9580 hc         1 BBW       0.010700
     21 H9           1.7330    -0.0030     4.5650 ha         1 BBW       0.108000
@<TRIPOS>BOND
     1     1     2 1   
     2     1    13 1   
     3     1    14 1   
     4     2     3 ar  
     5     2     5 ar  
     6     3     4 ar  
     7     3     8 ar  
     8     4    12 ar  
     9     4    15 1   
    10     5     6 ar  
    11     6     7 ar  
    12     6    16 1   
    13     7     8 ar  
    14     8     9 ar  
    15     9    10 ar  
    16     9    17 1   
    17    10    11 1   
    18    10    12 ar  
    19    11    18 1   
    20    11    19 1   
    21    11    20 1   
    22    12    21 1   
@<TRIPOS>SUBSTRUCTURE
     1 BBW         1 TEMP              0 ****  ****    0 ROOT
