@<TRIPOS>MOLECULE
molecule
    8     7     1     0     0
SMALL
bcc


@<TRIPOS>ATOM
      1 Br1          0.0000     0.0000     0.0000 br         1 BBX      -0.187400
      2 C1           1.9640     0.0000     0.0000 c3         1 BBX       0.003000
      3 C2           2.4750     0.0000     1.4420 c3         1 BBX      -0.095100
      4 H11          2.3250    -0.8840    -0.5110 h1         1 BBX       0.069700
      5 H12          2.3250     0.8840    -0.5110 h1         1 BBX       0.069700
      6 H21          2.1140     0.8850     1.9530 hc         1 BBX       0.046700
      7 H22          2.1140    -0.8850     1.9530 hc         1 BBX       0.046700
      8 H23          3.5580     0.0000     1.4410 hc         1 BBX       0.046700
@<TRIPOS>BOND
     1     1     2 1
     2     2     3 1
     3     2     4 1
     4     2     5 1
     5     3     6 1
     6     3     7 1
     7     3     8 1
@<TRIPOS>SUBSTRUCTURE
     1 BBX         1 TEMP              0 ****  ****    0 ROOT
