@<TRIPOS>MOLECULE
molecule
   27    29     1     0     0
SMALL
bcc


@<TRIPOS>ATOM
      1 C1           0.0000     0.0000     0.0000 ca         1 BBY      -0.113000
      2 C2           1.3950     0.0000     0.0000 ca         1 BBY      -0.012000
      3 C3           2.0900     0.0000     1.2100 ca         1 BBY      -0.081000
      4 C4           1.3960     0.0010     2.4040 ca         1 BBY      -0.004900
      5 C5           0.0080     0.0010     2.4040 ca         1 BBY       0.074100
      6 C6          -0.6910     0.0010     1.1980 ca         1 BBY       0.055100
      7 O7          -2.0290     0.0010     1.4690 os         1 BBY      -0.324900
      8 C8          -2.1420     0.4150     2.8440 c3         1 BBY       0.330200
      9 O9          -0.8940     0.0020     3.4300 os         1 BBY      -0.311900
     10 C10          2.1370    -0.0020    -1.2800 cc         1 BBY      -0.026300
     11 N11          1.6520    -0.3920    -2.4930 na         1 BBY       0.070400
     12 N12          2.6760    -0.2350    -3.4360 nc         1 BBY      -0.519800
     13 C13          3.7380     0.2300    -2.8230 cd         1 BBY       0.593200
     14 C14          3.4310     0.3940    -1.4660 cd         1 BBY      -0.335300
     15 Br15         2.3400     0.0020     4.0420 br         1 BBY      -0.068100
     16 C16          0.3000    -0.8880    -2.7620 c3         1 BBY       0.061600
     17 N17          4.9690     0.5190    -3.4230 nv         1 BBY      -1.061500
     18 H1          -0.5420     0.0000    -0.9380 ha         1 BBY       0.153000
     19 H3           3.1730    -0.0000     1.2120 ha         1 BBY       0.162000
     20 H8          -2.9630    -0.1090     3.3190 h2         1 BBY       0.076700
     21 H8A         -2.2340     1.4930     2.8970 h2         1 BBY       0.076700
     22 H14          4.1020     0.7620    -0.6990 ha         1 BBY       0.159000
     23 H16          0.0430    -1.6510    -2.0370 h1         1 BBY       0.057033
     24 H16A        -0.4060    -0.0700    -2.6900 h1         1 BBY       0.057033
     25 H16B         0.2620    -1.3110    -3.7590 h1         1 BBY       0.057033
     26 HN17         5.6710    -0.1910    -3.4930 hn         1 BBY       0.436800
     27 HN1A         5.1390     1.4290    -3.8050 hn         1 BBY       0.436800
@<TRIPOS>BOND
     1     1     2 ar
     2     1     6 ar
     3     2     3 ar
     4     2    10 1
     5     3     4 ar
     6     4     5 ar
     7     4    15 1
     8     5     6 ar
     9     5     9 1
    10     6     7 1
    11     7     8 1
    12     8     9 1
    13    10    11 1
    14    10    14 2
    15    11    12 1
    16    11    16 1
    17    12    13 2
    18    13    14 1
    19    13    17 1
    20     1    18 1
    21     3    19 1
    22     8    20 1
    23     8    21 1
    24    14    22 1
    25    16    23 1
    26    16    24 1
    27    16    25 1
    28    17    26 1
    29    17    27 1
@<TRIPOS>SUBSTRUCTURE
     1 BBY         1 TEMP              0 ****  ****    0 ROOT
