@<TRIPOS>MOLECULE
BBY
   27    29     1     0     0
SMALL
bcc


@<TRIPOS>ATOM
      1 C1           0.0000     0.0000     0.0000 ca         1 BBY      -0.118000
      2 C2           1.3950     0.0000     0.0000 ca         1 BBY       0.006000
      3 C3           2.0900     0.0000     1.2100 ca         1 BBY      -0.070000
      4 C4           1.3960     0.0010     2.4040 ca         1 BBY       0.044100
      5 C5           0.0080     0.0010     2.4040 ca         1 BBY       0.075100
      6 C6          -0.6910     0.0010     1.1980 ca         1 BBY       0.070100
      7 O7          -2.0290     0.0010     1.4690 os         1 BBY      -0.313900
      8 C8          -2.1420     0.4150     2.8440 c3         1 BBY       0.430200
      9 O9          -0.8940     0.0020     3.4300 os         1 BBY      -0.299900
     10 C10          2.1370    -0.0020    -1.2800 cc         1 BBY      -0.179300
     11 N11          1.6520    -0.3920    -2.4930 na         1 BBY       0.497400
     12 N12          2.6760    -0.2350    -3.4360 nc         1 BBY      -0.653800
     13 C13          3.7380     0.2300    -2.8230 cd         1 BBY       0.480200
     14 C14          3.4310     0.3940    -1.4660 cd         1 BBY      -0.319300
     15 Br15         2.3400     0.0020     4.0420 br         1 BBY      -0.102100
     16 C16          0.3000    -0.8880    -2.7620 c3         1 BBY       0.009600
     17 N17          4.9690     0.5190    -3.4230 nv         1 BBY      -0.620500
     18 H1          -0.5420     0.0000    -0.9380 ha         1 BBY       0.130000
     19 H3           3.1730    -0.0000     1.2120 ha         1 BBY       0.133000
     20 H8          -2.9630    -0.1090     3.3190 h2         1 BBY       0.018200
     21 H8A         -2.2340     1.4930     2.8970 h2         1 BBY       0.018200
     22 H14          4.1020     0.7620    -0.6990 ha         1 BBY       0.139000
     23 H16          0.0430    -1.6510    -2.0370 h1         1 BBY       0.027033
     24 H16A        -0.4060    -0.0700    -2.6900 h1         1 BBY       0.027033
     25 H16B         0.2620    -1.3110    -3.7590 h1         1 BBY       0.027033
     26 HN17         5.6710    -0.1910    -3.4930 hn         1 BBY       0.271800
     27 HN1A         5.1390     1.4290    -3.8050 hn         1 BBY       0.271800
@<TRIPOS>BOND
     1     1     2 ar  
     2     1     6 ar  
     3     1    18 1   
     4     2     3 ar  
     5     2    10 1   
     6     3     4 ar  
     7     3    19 1   
     8     4     5 ar  
     9     4    15 1   
    10     5     6 ar  
    11     5     9 1   
    12     6     7 1   
    13     7     8 1   
    14     8     9 1   
    15     8    20 1   
    16     8    21 1   
    17    10    11 1   
    18    10    14 2   
    19    11    12 1   
    20    11    16 1   
    21    12    13 2   
    22    13    14 1   
    23    13    17 1   
    24    14    22 1   
    25    16    23 1   
    26    16    24 1   
    27    16    25 1   
    28    17    26 1   
    29    17    27 1   
@<TRIPOS>SUBSTRUCTURE
     1 BBY         1 TEMP              0 ****  ****    0 ROOT
