@<TRIPOS>MOLECULE
BBZ
   63    68     1     0     0
SMALL
bcc


@<TRIPOS>ATOM
      1 C            0.0000     0.0000     0.0000 ca         1 BBZ       0.090600
      2 C1           1.3840     0.0000     2.4010 ca         1 BBZ      -0.178900
      3 C2           1.3910     0.0000     0.0000 ca         1 BBZ      -0.196500
      4 C3           2.0820     0.0000     1.1910 ca         1 BBZ      -0.022500
      5 C4          -0.6970    -0.0000     1.2040 ca         1 BBZ      -0.196500
      6 C5          -0.0120    -0.0060     2.3980 ca         1 BBZ      -0.022500
      7 N           -0.6960    -0.0000    -1.2070 nh         1 BBZ      -0.389000
      8 C6           2.1230    -0.0000     3.6810 cc         1 BBZ       0.289400
      9 C7           3.6250    -0.4540     5.1930 ca         1 BBZ       0.063400
     10 C8           2.7080     0.4450     5.7690 ca         1 BBZ      -0.274200
     11 C9           2.8760     0.8680     7.0810 ca         1 BBZ      -0.085000
     12 C10          3.9330     0.4140     7.8190 ca         1 BBZ      -0.091000
     13 C11          4.8550    -0.4800     7.2610 ca         1 BBZ      -0.133900
     14 C12          4.7060    -0.9100     5.9480 ca         1 BBZ       0.010000
     15 N1           3.2140    -0.6840     3.9220 nd         1 BBZ      -0.512100
     16 N2           1.7690     0.7150     4.7930 na         1 BBZ       0.265700
     17 C13          5.9940    -0.9640     8.0700 cc         1 BBZ       0.282400
     18 C14          8.0060    -1.5850     8.6300 ca         1 BBZ       0.086400
     19 C15          7.1980    -1.7020     9.7750 ca         1 BBZ      -0.291200
     20 C16          7.7460    -2.1510    10.9680 ca         1 BBZ      -0.063000
     21 C17          9.0820    -2.4810    11.0310 ca         1 BBZ      -0.153000
     22 C18          9.8900    -2.3680     9.9020 ca         1 BBZ      -0.006400
     23 N3           7.2150    -1.1310     7.6280 nd         1 BBZ      -0.515100
     24 N4           5.9290    -1.3030     9.3950 na         1 BBZ       0.262700
     25 C19          9.3620    -1.9170     8.7080 ca         1 BBZ      -0.060000
     26 N5          11.2460    -2.7060     9.9800 nh         1 BBZ      -0.357000
     27 N6          13.7440    -2.1650    11.3500 n3         1 BBZ      -0.529600
     28 C20         11.4950    -3.1350    11.3620 c3         1 BBZ       0.121800
     29 C21         12.9880    -3.4050    11.5560 c3         1 BBZ       0.137800
     30 C22         13.4950    -1.7360     9.9690 c3         1 BBZ       0.137800
     31 C23         12.0020    -1.4660     9.7760 c3         1 BBZ       0.121800
     32 C24         15.1680    -2.5200    11.4320 c3         1 BBZ       0.174100
     33 CN1          0.0320     0.1220    -2.4720 c3         1 BBZ       0.211100
     34 CN2         -2.1550    -0.1230    -1.2110 c3         1 BBZ       0.211100
     35 H2           1.9310     0.0000    -0.9390 ha         1 BBZ       0.117500
     36 H3           3.1650     0.0020     1.1890 ha         1 BBZ       0.106000
     37 H4          -1.7810    -0.0030     1.2010 ha         1 BBZ       0.117500
     38 H5          -0.5560    -0.0060     3.3350 ha         1 BBZ       0.106000
     39 H9           2.1680     1.5600     7.5210 ha         1 BBZ       0.100000
     40 H10          4.0560     0.7440     8.8430 ha         1 BBZ       0.101000
     41 H12          5.4190    -1.6020     5.5170 ha         1 BBZ       0.128000
     42 HN2          1.0580     1.4180     4.8390 hn         1 BBZ       0.129700
     43 H16          7.1230    -2.2420    11.8500 ha         1 BBZ       0.098000
     44 H17          9.5060    -2.8350    11.9630 ha         1 BBZ       0.130000
     45 HN4          5.0940    -1.4020     9.9370 hn         1 BBZ       0.128700
     46 H19          9.9940    -1.8310     7.8320 ha         1 BBZ       0.122000
     47 H201        10.9370    -4.0410    11.5630 h1         1 BBZ       0.027950
     48 H202        11.1800    -2.3530    12.0430 h1         1 BBZ       0.027950
     49 H211        13.1590    -3.7680    12.5620 h1         1 BBZ       0.018200
     50 H212        13.3140    -4.1480    10.8380 h1         1 BBZ       0.018200
     51 H221        14.0530    -0.8290     9.7680 h1         1 BBZ       0.018200
     52 H222        13.8100    -2.5180     9.2880 h1         1 BBZ       0.018200
     53 H231        11.8300    -1.1010     8.7710 h1         1 BBZ       0.027950
     54 H232        11.6760    -0.7240    10.4950 h1         1 BBZ       0.027950
     55 H241        15.3920    -3.2850    10.6990 h1         1 BBZ       0.003033
     56 H242        15.3900    -2.8940    12.4240 h1         1 BBZ       0.003033
     57 H243        15.7710    -1.6420    11.2340 h1         1 BBZ       0.003033
     58 HN11        -0.6750     0.1740    -3.2910 h1         1 BBZ       0.005867
     59 HN12         0.6330     1.0230    -2.4560 h1         1 BBZ       0.005867
     60 HN13         0.6750    -0.7390    -2.6030 h1         1 BBZ       0.005867
     61 HN21        -2.5110    -0.1740    -2.2330 h1         1 BBZ       0.005867
     62 HN22        -2.4430    -1.0240    -0.6830 h1         1 BBZ       0.005867
     63 HN23        -2.5910     0.7380    -0.7190 h1         1 BBZ       0.005867
@<TRIPOS>BOND
     1     1     3 ar  
     2     1     5 ar  
     3     1     7 1   
     4     2     4 ar  
     5     2     6 ar  
     6     2     8 1   
     7     3     4 ar  
     8     3    35 1   
     9     4    36 1   
    10     5     6 ar  
    11     5    37 1   
    12     6    38 1   
    13     7    33 1   
    14     7    34 1   
    15     8    15 2   
    16     8    16 1   
    17     9    10 ar  
    18     9    14 ar  
    19     9    15 1   
    20    10    11 ar  
    21    10    16 1   
    22    11    12 ar  
    23    11    39 1   
    24    12    13 ar  
    25    12    40 1   
    26    13    14 ar  
    27    13    17 1   
    28    14    41 1   
    29    16    42 1   
    30    17    23 2   
    31    17    24 1   
    32    18    19 ar  
    33    18    23 1   
    34    18    25 ar  
    35    19    20 ar  
    36    19    24 1   
    37    20    21 ar  
    38    20    43 1   
    39    21    22 ar  
    40    21    44 1   
    41    22    25 ar  
    42    22    26 1   
    43    24    45 1   
    44    25    46 1   
    45    26    28 1   
    46    26    31 1   
    47    27    29 1   
    48    27    30 1   
    49    27    32 1   
    50    28    29 1   
    51    28    47 1   
    52    28    48 1   
    53    29    49 1   
    54    29    50 1   
    55    30    31 1   
    56    30    51 1   
    57    30    52 1   
    58    31    53 1   
    59    31    54 1   
    60    32    55 1   
    61    32    56 1   
    62    32    57 1   
    63    33    58 1   
    64    33    59 1   
    65    33    60 1   
    66    34    61 1   
    67    34    62 1   
    68    34    63 1   
@<TRIPOS>SUBSTRUCTURE
     1 BBZ         1 TEMP              0 ****  ****    0 ROOT
