@<TRIPOS>MOLECULE
BC
   43    47     1     0     0
SMALL
bcc


@<TRIPOS>ATOM
      1 C1         -0.1090   -0.2910   -0.0540 ca        1 BC      -0.127000
      2 C2          1.2770   -0.2360   -0.0600 ca        1 BC      -0.130000
      3 C3          1.9700   -0.0040    1.1310 ca        1 BC      -0.128000
      4 C4          1.2670    0.0920    2.3210 ca        1 BC      -0.119000
      5 C4A        -0.1390    0.0100    2.3480 ca        1 BC      -0.020000
      6 C4B        -0.8560   -0.0870    3.6060 ca        1 BC      -0.019000
      7 C5         -0.2050    0.0850    4.8430 ca        1 BC      -0.120000
      8 C6         -0.8660   -0.1500    6.0380 ca        1 BC      -0.127000
      9 C7         -2.2010   -0.5670    6.0230 ca        1 BC      -0.128000
     10 C8         -2.8700   -0.7000    4.8170 ca        1 BC      -0.118000
     11 C8A        -2.2260   -0.4340    3.5910 ca        1 BC      -0.019000
     12 C8B        -2.9610   -0.4110    2.3380 ca        1 BC      -0.012000
     13 C9         -4.3490   -0.6480    2.3170 ca        1 BC      -0.129000
     14 C10        -5.0950   -0.3570    1.1920 ca        1 BC      -0.099000
     15 CAA        -4.4800    0.2200    0.0690 ca        1 BC      -0.079300
     16 C11        -5.3960    0.7670   -0.9850 c3        1 BC       0.201400
     17 O11        -6.4340   -0.1750   -1.2230 oh        1 BC      -0.594800
     18 C12        -4.6770    1.0880   -2.3040 c3        1 BC       0.062100
     19 O12        -5.5770    1.9070   -3.0400 oh        1 BC      -0.612800
     20 C13        -3.3710    1.8400   -2.0290 c3        1 BC       0.121100
     21 O13        -3.5800    3.0800   -1.3770 oh        1 BC      -0.588800
     22 C14        -2.4510    0.9740   -1.1770 c3        1 BC      -0.038100
     23 CEA        -3.0900    0.3570    0.0200 ca        1 BC      -0.039300
     24 CEB        -2.3060   -0.0490    1.1350 ca        1 BC      -0.018000
     25 CEC        -0.8500   -0.0860    1.1260 ca        1 BC      -0.015000
     26 H1         -0.6180   -0.5620   -0.9890 ha        1 BC       0.134000
     27 H2          1.8300   -0.3860   -0.9990 ha        1 BC       0.132000
     28 H3          3.0670    0.0730    1.1260 ha        1 BC       0.134000
     29 H4          1.8330    0.2100    3.2570 ha        1 BC       0.133000
     30 H5          0.8430    0.4160    4.8770 ha        1 BC       0.133000
     31 H6         -0.3440   -0.0130    6.9960 ha        1 BC       0.133000
     32 H7         -2.7210   -0.7780    6.9690 ha        1 BC       0.133000
     33 H8         -3.9250   -1.0110    4.8370 ha        1 BC       0.134000
     34 H9         -4.8640   -1.0500    3.2000 ha        1 BC       0.136000
     35 H10        -6.1800   -0.5440    1.1700 ha        1 BC       0.151000
     36 H11        -5.8480    1.7270   -0.5910 h1        1 BC       0.061700
     37 HO11       -7.0150    0.2290   -1.8810 ho        1 BC       0.415000
     38 H12        -4.4650    0.1400   -2.8700 h1        1 BC       0.066700
     39 HO12       -5.1940    2.0300   -3.9160 ho        1 BC       0.411000
     40 H13        -2.8610    2.0550   -3.0150 h1        1 BC       0.033700
     41 HO13       -4.4190    3.4340   -1.7040 ho        1 BC       0.413000
     42 H141       -1.5740    1.5990   -0.8580 hc        1 BC       0.070200
     43 H142       -2.0910    0.1560   -1.8620 hc        1 BC       0.070200
@<TRIPOS>BOND
     1    1    2 ar  
     2    1   25 ar  
     3    1   26 1   
     4    2    3 ar  
     5    2   27 1   
     6    3    4 ar  
     7    3   28 1   
     8    4    5 ar  
     9    4   29 1   
    10    5    6 ar  
    11    5   25 ar  
    12    6    7 ar  
    13    6   11 ar  
    14    7    8 ar  
    15    7   30 1   
    16    8    9 ar  
    17    8   31 1   
    18    9   10 ar  
    19    9   32 1   
    20   10   11 ar  
    21   10   33 1   
    22   11   12 ar  
    23   12   13 ar  
    24   12   24 ar  
    25   13   14 ar  
    26   13   34 1   
    27   14   15 ar  
    28   14   35 1   
    29   15   16 1   
    30   15   23 ar  
    31   16   17 1   
    32   16   18 1   
    33   16   36 1   
    34   17   37 1   
    35   18   19 1   
    36   18   20 1   
    37   18   38 1   
    38   19   39 1   
    39   20   21 1   
    40   20   22 1   
    41   20   40 1   
    42   21   41 1   
    43   22   23 1   
    44   22   42 1   
    45   22   43 1   
    46   23   24 ar  
    47   24   25 ar  
@<TRIPOS>SUBSTRUCTURE
     1 BC          1 TEMP              0 ****  ****    0 ROOT
