@<TRIPOS>MOLECULE
molecule
   43    47     1     0     0
SMALL
bcc


@<TRIPOS>ATOM
      1 C1           0.0000     0.0000     0.0000 ca         1 BC       -0.130000
      2 C2           1.3960     0.0000     0.0000 ca         1 BC       -0.124000
      3 C3           2.0640     0.0000     1.1970 ca         1 BC       -0.124000
      4 C4           1.3250    -0.0500     2.3730 ca         1 BC       -0.121000
      5 C4A         -0.1010    -0.0720     2.4050 ca         1 BC       -0.019000
      6 C4B         -0.8130    -0.2190     3.6340 ca         1 BC       -0.021000
      7 C5          -0.1570    -0.3110     4.8980 ca         1 BC       -0.121000
      8 C6          -0.8320    -0.4990     6.1010 ca         1 BC       -0.123000
      9 C7          -2.2020    -0.6040     6.0880 ca         1 BC       -0.123000
     10 C8          -2.8770    -0.5100     4.8710 ca         1 BC       -0.120000
     11 C8A         -2.2260    -0.3120     3.6160 ca         1 BC       -0.017000
     12 C8B         -2.9400    -0.1790     2.3750 ca         1 BC       -0.015000
     13 C9          -4.3500    -0.3100     2.3520 ca         1 BC       -0.129000
     14 C10         -5.1220    -0.1110     1.2180 ca         1 BC       -0.102000
     15 CAA         -4.5300     0.2900     0.0330 ca         1 BC       -0.071300
     16 C11         -5.4530     0.6150    -1.1230 c3         1 BC        0.199400
     17 O11         -6.2840    -0.5180    -1.3930 oh         1 BC       -0.607800
     18 C12         -4.7390     0.9940    -2.4160 c3         1 BC        0.126100
     19 O12         -5.6510     1.7070    -3.2490 oh         1 BC       -0.602800
     20 C13         -3.5250     1.8580    -2.1260 c3         1 BC        0.143100
     21 O13         -3.8900     3.0500    -1.4320 oh         1 BC       -0.586800
     22 C14         -2.5380     1.0600    -1.2740 c3         1 BC       -0.054100
     23 CEA         -3.1220     0.4450    -0.0020 ca         1 BC       -0.038300
     24 CEB         -2.2690     0.1000     1.1470 ca         1 BC       -0.010000
     25 CEC         -0.8100     0.0280     1.1710 ca         1 BC       -0.010000
     26 H1          -0.5030    -0.0010    -0.9600 ha         1 BC        0.126000
     27 H2           1.9430     0.0380    -0.9340 ha         1 BC        0.132000
     28 H3           3.1470    -0.0000     1.2250 ha         1 BC        0.134000
     29 H4           1.8600    -0.0500     3.3150 ha         1 BC        0.129000
     30 H5           0.9230    -0.2300     4.9230 ha         1 BC        0.127000
     31 H6          -0.2850    -0.5680     7.0330 ha         1 BC        0.133000
     32 H7          -2.7510    -0.7500     7.0100 ha         1 BC        0.134000
     33 H8          -3.9560    -0.5940     4.8790 ha         1 BC        0.128000
     34 H9          -4.8530    -0.5810     3.2730 ha         1 BC        0.129000
     35 H10         -6.1930    -0.2680     1.2600 ha         1 BC        0.135000
     36 H11         -6.0830     1.4450    -0.8290 h1         1 BC        0.068700
     37 HO11        -7.1880    -0.2490    -1.4030 ho         1 BC        0.407000
     38 H12         -4.4180     0.0910    -2.9220 h1         1 BC        0.055700
     39 HO12        -5.6700     1.3130    -4.1050 ho         1 BC        0.404000
     40 H13         -3.0480     2.1210    -3.0620 h1         1 BC        0.036700
     41 HO13        -3.5680     3.8000    -1.9050 ho         1 BC        0.404000
     42 H141        -2.1360     0.2600    -1.8830 hc         1 BC        0.059200
     43 H142        -1.7270     1.7200    -0.9890 hc         1 BC        0.059200
@<TRIPOS>BOND
     1     1     2 ar
     2     1    25 ar
     3     1    26 1
     4     2     3 ar
     5     2    27 1
     6     3     4 ar
     7     3    28 1
     8     4     5 ar
     9     4    29 1
    10     5     6 ar
    11     5    25 ar
    12     6     7 ar
    13     6    11 ar
    14     7     8 ar
    15     7    30 1
    16     8     9 ar
    17     8    31 1
    18     9    10 ar
    19     9    32 1
    20    10    11 ar
    21    10    33 1
    22    11    12 ar
    23    12    13 ar
    24    12    24 ar
    25    13    14 ar
    26    13    34 1
    27    14    15 ar
    28    14    35 1
    29    15    16 1
    30    15    23 ar
    31    16    17 1
    32    16    18 1
    33    16    36 1
    34    17    37 1
    35    18    19 1
    36    18    20 1
    37    18    38 1
    38    19    39 1
    39    20    21 1
    40    20    22 1
    41    20    40 1
    42    21    41 1
    43    22    23 1
    44    22    42 1
    45    22    43 1
    46    23    24 ar
    47    24    25 ar
@<TRIPOS>SUBSTRUCTURE
     1 BC          1 TEMP              0 ****  ****    0 ROOT
