@<TRIPOS>MOLECULE
BC1
   42    44     1     0     0
SMALL
bcc


@<TRIPOS>ATOM
      1 O1          1.1200    0.2480    0.4700 o         1 BC1     -0.500000
      2 C1          1.9910   -0.0170   -0.3590 c         1 BC1      0.628100
      3 O2          1.9670   -1.3040   -0.8030 oh        1 BC1     -0.585100
      4 C2          3.0180    0.9330   -0.9010 c3        1 BC1     -0.207400
      5 C3          4.4380    0.4620   -0.5560 c3        1 BC1      0.097000
      6 N1          5.3700    0.4930   -1.6480 n         1 BC1     -0.555900
      7 C4          5.2930   -0.4160   -2.6760 c         1 BC1      0.670100
      8 O3          4.4310   -1.3190   -2.6830 o         1 BC1     -0.619100
      9 C5          6.3180   -0.2730   -3.8340 c3        1 BC1      0.083700
     10 C6          6.3150   -1.5220   -4.5990 c1        1 BC1      0.226700
     11 N2          6.3190   -2.5090   -5.2120 n1        1 BC1     -0.340800
     12 C7          7.7000   -0.0350   -3.2850 ca        1 BC1     -0.143800
     13 C8          8.4440   -1.1150   -2.7990 ca        1 BC1     -0.075000
     14 C9          9.7300   -0.9290   -2.3030 ca        1 BC1     -0.155500
     15 C10        10.2910    0.3470   -2.3050 ca        1 BC1     -0.085000
     16 C11         9.5740    1.4360   -2.7850 ca        1 BC1     -0.180000
     17 C12         8.2540    1.2690   -3.2660 ca        1 BC1      0.170100
     18 N3          7.4680    2.3670   -3.6740 nh        1 BC1     -0.547400
     19 C13         6.4760    2.1290   -4.6460 ca        1 BC1      0.170100
     20 C14         5.8560    0.8560   -4.7180 ca        1 BC1     -0.143800
     21 C15         4.8090    0.6400   -5.6190 ca        1 BC1     -0.075000
     22 C16         4.3710    1.6570   -6.4610 ca        1 BC1     -0.155500
     23 C17         4.9940    2.9040   -6.4150 ca        1 BC1     -0.085000
     24 C18         6.0370    3.1430   -5.5290 ca        1 BC1     -0.180000
     25 C19         7.9980    3.6970   -3.5290 c3        1 BC1      0.190100
     26 H2          2.8370    1.9490   -0.4660 hc        1 BC1      0.085200
     27 H3          2.8670    1.0030   -2.0120 hc        1 BC1      0.085200
     28 H4          4.3890   -0.6000   -0.1700 h1        1 BC1      0.067700
     29 H5          4.8480    1.1120    0.2680 h1        1 BC1      0.067700
     30 H6          5.9980    1.2580   -1.7140 hn        1 BC1      0.332500
     31 H7          8.0050   -2.1260   -2.8090 ha        1 BC1      0.153000
     32 H8         10.3020   -1.7860   -1.9190 ha        1 BC1      0.144500
     33 H9         11.3160    0.4980   -1.9310 ha        1 BC1      0.139000
     34 H10        10.0560    2.4250   -2.7960 ha        1 BC1      0.140000
     35 H11         4.3240   -0.3500   -5.6570 ha        1 BC1      0.153000
     36 H12         3.5430    1.4750   -7.1610 ha        1 BC1      0.144500
     37 H13         4.6640    3.7080   -7.0910 ha        1 BC1      0.139000
     38 H14         6.5210    4.1310   -5.5360 ha        1 BC1      0.140000
     39 H15         7.1530    4.4360   -3.5650 h1        1 BC1      0.049700
     40 H16         8.4930    3.7890   -2.5250 h1        1 BC1      0.049700
     41 H17         8.7420    3.9490   -4.3320 h1        1 BC1      0.049700
     42 H121        2.6670   -1.4490   -1.4630 ho        1 BC1      0.456000
@<TRIPOS>BOND
     1    1    2 2   
     2    2    3 1   
     3    2    4 1   
     4    3   42 1   
     5    4    5 1   
     6    4   26 1   
     7    4   27 1   
     8    5    6 1   
     9    5   28 1   
    10    5   29 1   
    11    6    7 1   
    12    6   30 1   
    13    7    8 2   
    14    7    9 1   
    15    9   10 1   
    16    9   12 1   
    17    9   20 1   
    18   10   11 3   
    19   12   13 ar  
    20   12   17 ar  
    21   13   14 ar  
    22   13   31 1   
    23   14   15 ar  
    24   14   32 1   
    25   15   16 ar  
    26   15   33 1   
    27   16   17 ar  
    28   16   34 1   
    29   17   18 1   
    30   18   19 1   
    31   18   25 1   
    32   19   20 ar  
    33   19   24 ar  
    34   20   21 ar  
    35   21   22 ar  
    36   21   35 1   
    37   22   23 ar  
    38   22   36 1   
    39   23   24 ar  
    40   23   37 1   
    41   24   38 1   
    42   25   39 1   
    43   25   40 1   
    44   25   41 1   
@<TRIPOS>SUBSTRUCTURE
     1 BC1         1 TEMP              0 ****  ****    0 ROOT
