@<TRIPOS>MOLECULE
BC3
   30    32     1     0     0
SMALL
bcc


@<TRIPOS>ATOM
      1 N01          0.0000     0.0000     0.0000 nz         1 BC3       0.236400
      2 C02          1.3730     0.0000     0.0000 cc         1 BC3      -0.066200
      3 N03          2.0110     0.0000     1.1460 nd         1 BC3      -0.305100
      4 C04          3.3580    -0.0000     1.1910 cd         1 BC3       0.007400
      5 C05          4.3030     0.0000     2.2400 cd         1 BC3      -0.056300
      6 C06          3.9900     0.0000     3.7140 c3         1 BC3       0.124200
      7 C07          3.7640    -1.4140     4.1810 ca         1 BC3      -0.228600
      8 C08          4.8250    -2.1780     4.6450 ca         1 BC3      -0.059000
      9 C09          4.5690    -3.4760     5.0640 ca         1 BC3      -0.205300
     10 C10          3.2780    -3.9610     5.0060 ca         1 BC3       0.417200
     11 N11          2.2930    -3.2060     4.5570 nb         1 BC3      -0.580000
     12 C12          2.4970    -1.9660     4.1560 ca         1 BC3       0.403200
     13 C13          5.5330    -0.0000     1.6900 cc         1 BC3      -0.292300
     14 N14          5.4250    -0.0010     0.3340 na         1 BC3       0.552900
     15 C15          4.0880    -0.0010    -0.0040 cc         1 BC3      -0.383900
     16 C16          3.3870    -0.0000    -1.2250 c          1 BC3       0.652100
     17 O17          3.9860    -0.0020    -2.2870 o          1 BC3      -0.626500
     18 N18          2.0370    -0.0060    -1.1920 ns         1 BC3       0.008600
     19 HN01        -0.3340    -0.7290     0.6000 hn         1 BC3       0.212800
     20 HN0A        -0.3340    -0.1550    -0.9310 hn         1 BC3       0.212800
     21 H06          3.0960     0.5860     3.8930 hc         1 BC3       0.033200
     22 H06A         4.8200     0.4320     4.2600 hc         1 BC3       0.033200
     23 H08          5.8280    -1.7710     4.6790 ha         1 BC3       0.112000
     24 H09          5.3740    -4.1010     5.4330 ha         1 BC3       0.123000
     25 H10          3.0710    -4.9740     5.3290 h4         1 BC3      -0.009900
     26 H12          1.6630    -1.3770     3.7930 h4         1 BC3      -0.029900
     27 H13          6.4650     0.0010     2.2420 h4         1 BC3       0.173000
     28 HN14         6.1890    -0.0010    -0.3120 hn         1 BC3       0.137700
     29 HN18         1.5190    -0.0150    -2.0490 hn         1 BC3       0.188500
     30 H013        -0.3340     0.8840     0.3310 hn         1 BC3       0.212800
@<TRIPOS>BOND
     1     1     2 1   
     2     1    19 1   
     3     1    20 1   
     4     1    30 1   
     5     2     3 2   
     6     2    18 1   
     7     3     4 1   
     8     4     5 1   
     9     4    15 2   
    10     5     6 1   
    11     5    13 2   
    12     6     7 1   
    13     6    21 1   
    14     6    22 1   
    15     7     8 ar  
    16     7    12 ar  
    17     8     9 ar  
    18     8    23 1   
    19     9    10 ar  
    20     9    24 1   
    21    10    11 ar  
    22    10    25 1   
    23    11    12 ar  
    24    12    26 1   
    25    13    14 1   
    26    13    27 1   
    27    14    15 1   
    28    14    28 1   
    29    15    16 1   
    30    16    17 2   
    31    16    18 1   
    32    18    29 1   
@<TRIPOS>SUBSTRUCTURE
     1 BC3         1 TEMP              0 ****  ****    0 ROOT
