@<TRIPOS>MOLECULE
molecule
   30    32     1     0     0
SMALL
bcc


@<TRIPOS>ATOM
      1 N01          0.0000     0.0000     0.0000 nz         1 BC3      -0.720600
      2 C02          1.3730     0.0000     0.0000 cc         1 BC3       0.415800
      3 N03          2.0110     0.0000     1.1460 nd         1 BC3      -0.510100
      4 C04          3.3580    -0.0000     1.1910 cd         1 BC3       0.098400
      5 C05          4.3030     0.0000     2.2400 cd         1 BC3      -0.091300
      6 C06          3.9900     0.0000     3.7140 c3         1 BC3       0.041200
      7 C07          3.7640    -1.4140     4.1810 ca         1 BC3      -0.221600
      8 C08          4.8250    -2.1780     4.6450 ca         1 BC3      -0.085000
      9 C09          4.5690    -3.4760     5.0640 ca         1 BC3      -0.240300
     10 C10          3.2780    -3.9610     5.0060 ca         1 BC3       0.430200
     11 N11          2.2930    -3.2060     4.5570 nb         1 BC3      -0.689000
     12 C12          2.4970    -1.9660     4.1560 ca         1 BC3       0.422200
     13 C13          5.5330    -0.0000     1.6900 cc         1 BC3      -0.083300
     14 N14          5.4250    -0.0010     0.3340 na         1 BC3      -0.083100
     15 C15          4.0880    -0.0010    -0.0040 cc         1 BC3      -0.174900
     16 C16          3.3870    -0.0000    -1.2250 c          1 BC3       0.736100
     17 O17          3.9860    -0.0020    -2.2870 o          1 BC3      -0.576500
     18 N18          2.0370    -0.0060    -1.1920 ns         1 BC3      -0.463400
     19 HN01        -0.3340    -0.7290     0.6000 hn         1 BC3       0.475467
     20 HN0A        -0.3340    -0.1550    -0.9310 hn         1 BC3       0.475467
     21 H06          3.0960     0.5860     3.8930 hc         1 BC3       0.070200
     22 H06A         4.8200     0.4320     4.2600 hc         1 BC3       0.070200
     23 H08          5.8280    -1.7710     4.6790 ha         1 BC3       0.139000
     24 H09          5.3740    -4.1010     5.4330 ha         1 BC3       0.151000
     25 H10          3.0710    -4.9740     5.3290 h4         1 BC3       0.035100
     26 H12          1.6630    -1.3770     3.7930 h4         1 BC3       0.012100
     27 H13          6.4650     0.0010     2.2420 h4         1 BC3       0.204000
     28 HN14         6.1890    -0.0010    -0.3120 hn         1 BC3       0.339700
     29 HN18         1.5190    -0.0150    -2.0490 hn         1 BC3       0.348500
     30 H013        -0.3340     0.8840     0.3310 hn         1 BC3       0.475467
@<TRIPOS>BOND
     1     1     2 1
     2     2     3 2
     3     2    18 1
     4     3     4 1
     5     4     5 1
     6     4    15 2
     7     5     6 1
     8     5    13 2
     9     6     7 1
    10     7     8 ar
    11     7    12 ar
    12     8     9 ar
    13     9    10 ar
    14    10    11 ar
    15    11    12 ar
    16    13    14 1
    17    14    15 1
    18    15    16 1
    19    16    17 2
    20    16    18 1
    21     1    19 1
    22     1    20 1
    23     6    21 1
    24     6    22 1
    25     8    23 1
    26     9    24 1
    27    10    25 1
    28    12    26 1
    29    13    27 1
    30    14    28 1
    31    18    29 1
    32    30     1 1
@<TRIPOS>SUBSTRUCTURE
     1 BC3         1 TEMP              0 ****  ****    0 ROOT
