@<TRIPOS>MOLECULE
BC4
   31    32     1     0     0
SMALL
bcc


@<TRIPOS>ATOM
      1 CAA         -0.8690     0.0150    -2.4990 c1         1 BC4      -0.123500
      2 CAC         -0.4900    -0.0010    -1.3880 c1         1 BC4      -0.166100
      3 CAD          0.0000     0.0000     0.0000 c3         1 BC4       0.104700
      4 CAE          1.5300     0.0000     0.0000 c3         1 BC4      -0.031400
      5 CAF          2.0410     0.0000     1.4430 c3         1 BC4      -0.034400
      6 CAG          3.5700    -0.0000     1.4420 c3         1 BC4      -0.017400
      7 CAM          4.0800    -0.0000     2.8860 c3         1 BC4       0.064400
      8 SAK          3.7880     1.6330     3.6790 ss         1 BC4      -0.408200
      9 CAH          5.1890     1.4820     4.8620 c3         1 BC4       0.089700
     10 CAN          6.2440     0.7140     4.0420 c3         1 BC4      -0.002300
     11 CAO          5.6160    -0.1250     2.9220 c3         1 BC4       0.009700
     12 NAJ          6.1780     0.4480     1.6890 ns         1 BC4      -0.216900
     13 CAL          7.0010     1.4550     2.0110 c          1 BC4       0.622500
     14 OAB          7.6040     2.1100     1.1820 o          1 BC4      -0.723500
     15 NAI          7.0980     1.6760     3.3290 ns         1 BC4      -0.212900
     16 H1          -1.4050    -0.3090    -3.3830 ha         1 BC4       0.138500
     17 H2          -0.3610     0.8850     0.5100 hc         1 BC4       0.021200
     18 H3          -0.3610    -0.8840     0.5110 hc         1 BC4       0.021200
     19 H4           1.8920     0.8840    -0.5110 hc         1 BC4       0.021700
     20 H5           1.8920    -0.8840    -0.5110 hc         1 BC4       0.021700
     21 H6           1.6800    -0.8840     1.9530 hc         1 BC4       0.025200
     22 H7           1.6800     0.8850     1.9530 hc         1 BC4       0.025200
     23 H8           3.9310    -0.8850     0.9310 hc         1 BC4       0.032700
     24 H9           3.9320     0.8840     0.9310 hc         1 BC4       0.032700
     25 H10          3.6190    -0.7930     3.4630 h1         1 BC4       0.059700
     26 H11          4.8630     0.8240     5.6590 h1         1 BC4       0.065200
     27 H12          5.5770     2.4800     5.0260 h1         1 BC4       0.065200
     28 H13          6.8440     0.0870     4.6910 h1         1 BC4       0.039700
     29 H14          5.9080    -1.1630     3.0200 h1         1 BC4       0.039700
     30 H15          5.9800     0.1340     0.7600 hn         1 BC4       0.221500
     31 H16          7.6610     2.3830     3.7590 hn         1 BC4       0.215500
@<TRIPOS>BOND
     1     1     2 3   
     2     1    16 1   
     3     2     3 1   
     4     3     4 1   
     5     3    17 1   
     6     3    18 1   
     7     4     5 1   
     8     4    19 1   
     9     4    20 1   
    10     5     6 1   
    11     5    21 1   
    12     5    22 1   
    13     6     7 1   
    14     6    23 1   
    15     6    24 1   
    16     7     8 1   
    17     7    11 1   
    18     7    25 1   
    19     8     9 1   
    20     9    10 1   
    21     9    26 1   
    22     9    27 1   
    23    10    11 1   
    24    10    15 1   
    25    10    28 1   
    26    11    12 1   
    27    11    29 1   
    28    12    13 1   
    29    12    30 1   
    30    13    14 2   
    31    13    15 1   
    32    15    31 1   
@<TRIPOS>SUBSTRUCTURE
     1 BC4         1 TEMP              0 ****  ****    0 ROOT
