@<TRIPOS>MOLECULE
molecule
   31    32     1     0     0
SMALL
bcc


@<TRIPOS>ATOM
      1 CAA         -0.8690     0.0150    -2.4990 c1         1 BC4      -0.154500
      2 CAC         -0.4900    -0.0010    -1.3880 c1         1 BC4      -0.146100
      3 CAD          0.0000     0.0000     0.0000 c3         1 BC4       0.002700
      4 CAE          1.5300     0.0000     0.0000 c3         1 BC4      -0.079400
      5 CAF          2.0410     0.0000     1.4430 c3         1 BC4      -0.085400
      6 CAG          3.5700    -0.0000     1.4420 c3         1 BC4      -0.064400
      7 CAM          4.0800    -0.0000     2.8860 c3         1 BC4       0.027400
      8 SAK          3.7880     1.6330     3.6790 ss         1 BC4      -0.359200
      9 CAH          5.1890     1.4820     4.8620 c3         1 BC4       0.015700
     10 CAN          6.2440     0.7140     4.0420 c3         1 BC4       0.083700
     11 CAO          5.6160    -0.1250     2.9220 c3         1 BC4       0.091700
     12 NAJ          6.1780     0.4480     1.6890 ns         1 BC4      -0.595900
     13 CAL          7.0010     1.4550     2.0110 c          1 BC4       0.819500
     14 OAB          7.6040     2.1100     1.1820 o          1 BC4      -0.679500
     15 NAI          7.0980     1.6760     3.3290 ns         1 BC4      -0.597900
     16 H1          -1.4050    -0.3090    -3.3830 ha         1 BC4       0.163500
     17 H2          -0.3610     0.8850     0.5100 hc         1 BC4       0.059700
     18 H3          -0.3610    -0.8840     0.5110 hc         1 BC4       0.059700
     19 H4           1.8920     0.8840    -0.5110 hc         1 BC4       0.050200
     20 H5           1.8920    -0.8840    -0.5110 hc         1 BC4       0.050200
     21 H6           1.6800    -0.8840     1.9530 hc         1 BC4       0.050200
     22 H7           1.6800     0.8850     1.9530 hc         1 BC4       0.050200
     23 H8           3.9310    -0.8850     0.9310 hc         1 BC4       0.058700
     24 H9           3.9320     0.8840     0.9310 hc         1 BC4       0.058700
     25 H10          3.6190    -0.7930     3.4630 h1         1 BC4       0.077700
     26 H11          4.8630     0.8240     5.6590 h1         1 BC4       0.091200
     27 H12          5.5770     2.4800     5.0260 h1         1 BC4       0.091200
     28 H13          6.8440     0.0870     4.6910 h1         1 BC4       0.067700
     29 H14          5.9080    -1.1630     3.0200 h1         1 BC4       0.067700
     30 H15          5.9800     0.1340     0.7600 hn         1 BC4       0.364500
     31 H16          7.6610     2.3830     3.7590 hn         1 BC4       0.362500
@<TRIPOS>BOND
     1     2     1 3
     2     2     3 1
     3     3     4 1
     4     4     5 1
     5     5     6 1
     6     6     7 1
     7     7    11 1
     8     7     8 1
     9    11    12 1
    10    11    10 1
    11    12    13 1
    12     8     9 1
    13    10     9 1
    14    10    15 1
    15    13    15 1
    16    13    14 2
    17     1    16 1
    18     3    17 1
    19     3    18 1
    20     4    19 1
    21     4    20 1
    22     5    21 1
    23     5    22 1
    24     6    23 1
    25     6    24 1
    26     7    25 1
    27     9    26 1
    28     9    27 1
    29    10    28 1
    30    11    29 1
    31    12    30 1
    32    15    31 1
@<TRIPOS>SUBSTRUCTURE
     1 BC4         1 TEMP              0 ****  ****    0 ROOT
