@<TRIPOS>MOLECULE
molecule
   30    31     1     0     0
SMALL
bcc


@<TRIPOS>ATOM
      1 S1           0.0000     0.0000     0.0000 sy         1 BC5       1.220200
      2 N1           1.6560     0.0000     0.0000 nz         1 BC5      -0.805500
      3 O2          -0.4010     0.0000     1.3640 o          1 BC5      -0.522800
      4 O3          -0.4020     0.9990    -0.9280 o          1 BC5      -0.522800
      5 C4          -0.5220    -1.5430    -0.6720 ca         1 BC5      -0.358500
      6 C5          -0.7260    -2.6250     0.1640 ca         1 BC5      -0.021000
      7 C6          -1.1340    -3.8360    -0.3570 ca         1 BC5      -0.141000
      8 C7          -1.3420    -3.9670    -1.7290 cp         1 BC5       0.098000
      9 C8          -1.1350    -2.8730    -2.5670 ca         1 BC5      -0.141000
     10 C9          -0.7320    -1.6650    -2.0340 ca         1 BC5      -0.021000
     11 C10         -1.7800    -5.2670    -2.2950 cp         1 BC5      -0.112000
     12 C11         -1.9920    -6.3590    -1.4540 ca         1 BC5      -0.086500
     13 C12         -2.4050    -7.5630    -1.9820 ca         1 BC5      -0.146000
     14 C13         -2.6100    -7.6900    -3.3510 ca         1 BC5       0.217600
     15 C14         -2.4000    -6.6020    -4.1900 ca         1 BC5      -0.146000
     16 C15         -1.9880    -5.3960    -3.6680 ca         1 BC5      -0.086500
     17 N2          -3.0270    -8.9110    -3.8830 nv         1 BC5      -0.994200
     18 H1           1.9900    -0.1070    -0.9380 hn         1 BC5       0.490467
     19 H2           1.9900     0.8650     0.3760 hn         1 BC5       0.490467
     20 H3          -0.5650    -2.5230     1.2300 ha         1 BC5       0.153000
     21 H4          -1.2930    -4.6830     0.2990 ha         1 BC5       0.166000
     22 H5          -1.2970    -2.9690    -3.6330 ha         1 BC5       0.166000
     23 H6          -0.5710    -0.8140    -2.6840 ha         1 BC5       0.153000
     24 H7          -1.8330    -6.2600    -0.3870 ha         1 BC5       0.133000
     25 H8          -2.5700    -8.4120    -1.3300 ha         1 BC5       0.153000
     26 H9          -2.5610    -6.7030    -5.2570 ha         1 BC5       0.153000
     27 H10         -1.8240    -4.5480    -4.3230 ha         1 BC5       0.133000
     28 H11         -2.3500    -9.5870    -4.1760 hn         1 BC5       0.442300
     29 H12         -4.0040    -9.1100    -3.9720 hn         1 BC5       0.442300
     30 H13          1.9900    -0.7580     0.5610 hn         1 BC5       0.490467
@<TRIPOS>BOND
     1    17    14 1
     2    13    14 ar
     3    13    12 ar
     4    14    15 ar
     5    12    11 ar
     6    15    16 ar
     7    11    16 ar
     8    11     8 1
     9     8     7 ar
    10     8     9 ar
    11     7     6 ar
    12     9    10 ar
    13     6     5 ar
    14    10     5 ar
    15     2     1 1
    16     5     1 1
    17     3     1 2
    18     1     4 2
    19     2    18 1
    20     2    19 1
    21     6    20 1
    22     7    21 1
    23     9    22 1
    24    10    23 1
    25    12    24 1
    26    13    25 1
    27    15    26 1
    28    16    27 1
    29    17    28 1
    30    17    29 1
    31    30     2 1
@<TRIPOS>SUBSTRUCTURE
     1 BC5         1 TEMP              0 ****  ****    0 ROOT
