@<TRIPOS>MOLECULE
BC6
   79    80     1     0     0
SMALL
bcc


@<TRIPOS>ATOM
      1 O37         0.0290   -0.3430    0.5130 o         1 BC6     -0.576100
      2 C21         1.2050    0.0660    0.4610 c         1 BC6      0.665300
      3 C20         1.9400    0.4670    1.6950 ce        1 BC6     -0.135400
      4 C36         1.6060    1.8250    2.1880 c3        1 BC6     -0.063900
      5 C19         2.7410   -0.3720    2.3660 c2        1 BC6     -0.145200
      6 C18         3.0070   -1.7790    1.9830 c3        1 BC6     -0.052200
      7 C17         4.4050   -2.2120    2.3840 c3        1 BC6     -0.075400
      8 C16         4.6280   -3.6910    2.0860 c3        1 BC6     -0.069700
      9 C35         3.9100   -4.5640    3.0950 c3        1 BC6     -0.100100
     10 N22         1.7910    0.1440   -0.7960 n         1 BC6     -0.477100
     11 C3          3.1100    0.4790   -1.1330 ca        1 BC6      0.102600
     12 C4          3.6700   -0.1120   -2.2900 ca        1 BC6     -0.216000
     13 C5          4.9730    0.2280   -2.6680 ca        1 BC6      0.147100
     14 O36         5.4620   -0.4030   -3.7900 oh        1 BC6     -0.501100
     15 C6          5.7430    1.1320   -1.9240 ca        1 BC6     -0.237000
     16 C1          5.1870    1.7160   -0.7840 ca        1 BC6     -0.011300
     17 C2          3.8810    1.4020   -0.3980 ca        1 BC6     -0.197000
     18 C7          5.9800    2.6990    0.0090 c3        1 BC6     -0.041100
     19 C8          6.6990    2.0950    1.2120 c3        1 BC6     -0.057700
     20 C25         5.7220    1.6610    2.2820 c3        1 BC6     -0.096100
     21 C9          7.6030    0.9560    0.7710 c3        1 BC6     -0.077400
     22 C10         8.4760    0.4030    1.8920 c3        1 BC6      0.103100
     23 O26         9.1710    1.5080    2.4780 os        1 BC6     -0.423600
     24 C27         9.4160    1.3610    3.8670 c3        1 BC6      0.111700
     25 C11         9.5460   -0.5760    1.3630 c3        1 BC6      0.129100
     26 O28        10.4020    0.0680    0.4320 oh        1 BC6     -0.598800
     27 C12         8.9500   -1.7900    0.6350 c3        1 BC6     -0.050500
     28 C29        10.0720   -2.6900    0.1420 c3        1 BC6     -0.084100
     29 C13         8.0490   -2.5620    1.5330 c2        1 BC6     -0.082200
     30 C14         6.9540   -3.2280    1.1190 c2        1 BC6     -0.208400
     31 C30         6.4890   -3.2400   -0.2890 c3        1 BC6     -0.063900
     32 C15         6.1310   -3.9850    2.1080 c3        1 BC6      0.229300
     33 O31         6.1970   -5.4340    1.7100 os        1 BC6     -0.406900
     34 C32         7.2440   -6.1280    2.1500 c         1 BC6      0.629100
     35 O33         8.0900   -5.8270    2.9770 o         1 BC6     -0.415000
     36 N34         7.2760   -7.4870    1.4980 n4        1 BC6     -0.729400
     37 H22         1.2190   -0.1690   -1.5550 hn        1 BC6      0.332500
     38 H361        0.6380    1.7870    2.7520 hc        1 BC6      0.059700
     39 H362        2.4030    2.2110    2.8700 hc        1 BC6      0.059700
     40 H363        1.4820    2.5430    1.3390 hc        1 BC6      0.059700
     41 H19         3.2230   -0.0350    3.3000 ha        1 BC6      0.134000
     42 H181        2.8720   -1.9250    0.8770 hc        1 BC6      0.062200
     43 H182        2.2440   -2.4280    2.4970 hc        1 BC6      0.062200
     44 H171        4.5630   -2.0240    3.4780 hc        1 BC6      0.056700
     45 H172        5.1540   -1.5940    1.8200 hc        1 BC6      0.056700
     46 H16         4.2360   -3.9200    1.0540 hc        1 BC6      0.080700
     47 H351        2.8100   -4.3680    3.0580 hc        1 BC6      0.047033
     48 H352        4.0780   -5.6440    2.8690 hc        1 BC6      0.047033
     49 H353        4.2700   -4.3540    4.1310 hc        1 BC6      0.047033
     50 H15         6.5400   -3.9140    3.1530 h1        1 BC6      0.087700
     51 H4          3.1030   -0.8190   -2.9120 ha        1 BC6      0.155000
     52 H2          3.4630    1.9020    0.4900 ha        1 BC6      0.149000
     53 H36         6.2780    0.0470   -4.0540 ho        1 BC6      0.426000
     54 H6          6.7640    1.3870   -2.2410 ha        1 BC6      0.142000
     55 H7C1        6.7470    3.1790   -0.6580 hc        1 BC6      0.059200
     56 H7C2        5.2990    3.5150    0.3740 hc        1 BC6      0.059200
     57 H8          7.3550    2.9050    1.6480 hc        1 BC6      0.074700
     58 H251        5.0260    2.4980    2.5340 hc        1 BC6      0.034367
     59 H252        6.2720    1.3690    3.2100 hc        1 BC6      0.034367
     60 H253        5.1100    0.7900    1.9380 hc        1 BC6      0.034367
     61 H9C1        8.2710    1.3170   -0.0560 hc        1 BC6      0.056200
     62 H9C2        6.9760    0.1160    0.3680 hc        1 BC6      0.056200
     63 H10         7.8410   -0.1220    2.6580 h1        1 BC6      0.042700
     64 H11        10.1670   -0.9280    2.2370 h1        1 BC6      0.037700
     65 H271        8.4530    1.2920    4.4300 h1        1 BC6      0.040033
     66 H272       10.0430    0.4570    4.0670 h1        1 BC6      0.040033
     67 H273        9.9690    2.2920    4.1490 h1        1 BC6      0.040033
     68 H28        10.6030    0.9440    0.7940 ho        1 BC6      0.430000
     69 H12         8.3820   -1.4070   -0.2610 hc        1 BC6      0.084700
     70 H291       10.6470   -3.1110    1.0010 hc        1 BC6      0.046700
     71 H292       10.7720   -2.0930   -0.4940 hc        1 BC6      0.046700
     72 H293        9.6560   -3.5290   -0.4640 hc        1 BC6      0.046700
     73 H13         8.3500   -2.5820    2.5960 ha        1 BC6      0.132000
     74 H301        5.8990   -2.3120   -0.5040 hc        1 BC6      0.057367
     75 H302        5.8370   -4.1250   -0.4910 hc        1 BC6      0.057367
     76 H303        7.3560   -3.2730   -0.9970 hc        1 BC6      0.057367
     77 H341        8.0140   -8.0520    1.9340 hn        1 BC6      0.480800
     78 H342        7.4660   -7.3770    0.4960 hn        1 BC6      0.480800
     79 H343        6.3660   -7.9480    1.6120 hn        1 BC6      0.480800
@<TRIPOS>BOND
     1    1    2 2
     2    2    3 1
     3    2   10 1
     4    3    4 1
     5    3    5 2
     6    4   38 1
     7    4   39 1
     8    4   40 1
     9    5    6 1
    10    5   41 1
    11    6    7 1
    12    6   42 1
    13    6   43 1
    14    7    8 1
    15    7   44 1
    16    7   45 1
    17    8    9 1
    18    8   32 1
    19    8   46 1
    20    9   47 1
    21    9   48 1
    22    9   49 1
    23   10   11 1
    24   10   37 1
    25   11   12 ar
    26   11   17 ar
    27   12   13 ar
    28   12   51 1
    29   13   14 1
    30   13   15 ar
    31   14   53 1
    32   15   16 ar
    33   15   54 1
    34   16   17 ar
    35   16   18 1
    36   17   52 1
    37   18   19 1
    38   18   55 1
    39   18   56 1
    40   19   20 1
    41   19   21 1
    42   19   57 1
    43   20   58 1
    44   20   59 1
    45   20   60 1
    46   21   22 1
    47   21   61 1
    48   21   62 1
    49   22   23 1
    50   22   25 1
    51   22   63 1
    52   23   24 1
    53   24   65 1
    54   24   66 1
    55   24   67 1
    56   25   26 1
    57   25   27 1
    58   25   64 1
    59   26   68 1
    60   27   28 1
    61   27   29 1
    62   27   69 1
    63   28   70 1
    64   28   71 1
    65   28   72 1
    66   29   30 2
    67   29   73 1
    68   30   31 1
    69   30   32 1
    70   31   74 1
    71   31   75 1
    72   31   76 1
    73   32   33 1
    74   32   50 1
    75   33   34 1
    76   34   35 2
    77   34   36 1
    78   36   77 1
    79   36   78 1
    80   36   79 1
@<TRIPOS>SUBSTRUCTURE
     1 BC6         1 TEMP              0 ****  ****    0 ROOT
