@<TRIPOS>MOLECULE
BC7
   89    93     1     0     0
SMALL
bcc


@<TRIPOS>ATOM
      1 C1           0.0000     0.0000     0.0000 c          1 BC7       0.591100
      2 C4           0.0430     0.0000     2.4510 c3         1 BC7       0.045000
      3 C5          -0.2560     1.3080     3.1940 c3         1 BC7       0.047900
      4 C6          -1.7380     1.5810     3.1200 cc         1 BC7      -0.251600
      5 C8          -2.1470    -0.0000     1.1880 c3         1 BC7       0.156300
      6 C9          -3.8680     1.5070     2.4580 cd         1 BC7       0.424800
      7 C12         -1.9430     3.2340     4.9900 c3         1 BC7      -0.028700
      8 C13         -2.0150     2.4410     6.2970 c3         1 BC7       0.166100
      9 C15         -1.3600     3.2490     7.4190 c3         1 BC7       0.100800
     10 C17         -0.4360     1.2800     8.4830 c3         1 BC7       0.151800
     11 C19          1.4600     2.6180     9.4020 c3         1 BC7      -0.038700
     12 C18          0.9940     1.7590     8.2230 c3         1 BC7      -0.075900
     13 C20          0.4940     3.7940     9.5800 c3         1 BC7      -0.075900
     14 C22          2.8670     3.1510     9.1210 c3         1 BC7       0.168800
     15 C23         -5.0960     1.1480     1.7040 ca         1 BC7      -0.058500
     16 C24         -5.0240     0.8830     0.3390 ca         1 BC7      -0.120000
     17 C25         -6.1660     0.5480    -0.3610 ca         1 BC7      -0.032000
     18 C26         -7.3830     0.4740     0.2880 ca         1 BC7      -0.187300
     19 C27         -7.4650     0.7370     1.6510 ca         1 BC7       0.100900
     20 C28         -6.3200     1.0690     2.3620 ca         1 BC7      -0.124000
     21 C21         -0.9210     3.2540     9.8000 c3         1 BC7       0.151800
     22 C30         -8.5970     1.0620     4.1910 c3         1 BC7      -0.007300
     23 C31         -9.8420     1.0240     5.0380 c          1 BC7       0.619100
     24 C34         -8.5450     1.6610     7.0910 c3         1 BC7       0.053000
     25 C35         -8.8400     1.2770     8.5630 c3         1 BC7      -0.033900
     26 C36        -10.3390     1.6540     8.6870 c3         1 BC7      -0.033900
     27 C37        -10.9010     1.3040     7.2930 c3         1 BC7       0.053000
     28 C38         -8.6260     0.1090    -0.4820 c3         1 BC7       0.647200
     29 C43          1.5080     0.0000     0.0000 c3         1 BC7      -0.073100
     30 C44          3.3320     4.0090    10.3000 c3         1 BC7      -0.038600
     31 C45          3.8290     1.9770     8.9350 c3         1 BC7      -0.038600
     32 C7          -2.5800     1.0060     2.2280 cd         1 BC7      -0.325600
     33 F39         -9.1810    -1.0570     0.0550 f          1 BC7      -0.204300
     34 F40         -9.5540     1.1520    -0.3920 f          1 BC7      -0.204300
     35 F41         -8.2960    -0.1070    -1.8240 f          1 BC7      -0.204300
     36 N10         -3.7950     2.3570     3.4640 nc         1 BC7      -0.623800
     37 N11         -2.4610     2.4130     3.8920 na         1 BC7       0.528400
     38 N16         -1.3210     2.4400     8.6450 n3         1 BC7      -0.535600
     39 N3          -0.6740    -0.0010     1.1670 n          1 BC7      -0.171800
     40 N33         -9.7700     1.3040     6.3540 n          1 BC7      -0.164800
     41 O14         -3.3810     2.1870     6.6260 oh         1 BC7      -0.567800
     42 O2          -0.6050     0.0050    -1.0510 o          1 BC7      -0.643100
     43 O32        -10.9090     0.7430     4.5350 o          1 BC7      -0.614100
     44 O42          2.8480     3.9440     7.9330 oh         1 BC7      -0.592800
     45 S29         -9.0190     0.6440     2.4770 ss         1 BC7      -0.246000
     46 H1           1.1060    -0.0360     2.2450 h1         1 BC7       0.033700
     47 H2          -0.3320    -0.8220     3.0480 h1         1 BC7       0.033700
     48 H3           0.2630     2.1120     2.6880 hc         1 BC7       0.028700
     49 H4           0.0130     1.1760     4.2350 hc         1 BC7       0.028700
     50 H5          -2.5060     0.3280     0.2200 h1         1 BC7       0.045200
     51 H6          -2.4870    -0.9820     1.4960 h1         1 BC7       0.045200
     52 H7          -2.5390     4.1330     5.0810 h1         1 BC7       0.048700
     53 H8          -0.9130     3.5020     4.7870 h1         1 BC7       0.048700
     54 H9          -1.4910     1.5000     6.1770 h1         1 BC7       0.010700
     55 H10         -1.9350     4.1500     7.5990 h1         1 BC7       0.034200
     56 H11         -0.3510     3.5170     7.1310 h1         1 BC7       0.034200
     57 H12         -0.4570     0.6820     9.3870 h1         1 BC7       0.024700
     58 H13         -0.7740     0.6850     7.6430 h1         1 BC7       0.024700
     59 H14          1.4680     2.0190    10.3040 hc         1 BC7       0.038700
     60 H15          1.6490     0.9020     8.1210 hc         1 BC7       0.033950
     61 H16          1.0170     2.3500     7.3150 hc         1 BC7       0.033950
     62 H17          0.7950     4.3800    10.4410 hc         1 BC7       0.033950
     63 H18          0.5110     4.4120     8.6910 hc         1 BC7       0.033950
     64 H19         -4.0720     0.9390    -0.1740 ha         1 BC7       0.130000
     65 H20         -6.1080     0.3420    -1.4230 ha         1 BC7       0.125000
     66 H21         -6.3800     1.2750     3.4240 ha         1 BC7       0.131000
     67 H22         -0.9380     2.6430    10.6950 h1         1 BC7       0.024700
     68 H23         -1.6090     4.0840     9.9110 h1         1 BC7       0.024700
     69 H24         -7.8790     0.3450     4.5710 h1         1 BC7       0.057200
     70 H25         -8.1670     2.0560     4.2240 h1         1 BC7       0.057200
     71 H27         -7.7020     1.0920     6.7170 h1         1 BC7       0.022200
     72 H28         -8.6950     0.2150     8.7210 hc         1 BC7       0.025200
     73 H29         -8.2360     1.8650     9.2440 hc         1 BC7       0.025200
     74 H30        -10.4510     2.7130     8.8880 hc         1 BC7       0.025200
     75 H31        -10.8210     1.0580     9.4530 hc         1 BC7       0.025200
     76 H32        -11.6280     2.0490     6.9920 h1         1 BC7       0.022200
     77 H33        -11.3590     0.3230     7.3170 h1         1 BC7       0.022200
     78 H34          1.8690    -0.0680    -1.0190 hc         1 BC7       0.024367
     79 H35          1.8690     0.9170     0.4510 hc         1 BC7       0.024367
     80 H36          1.8690    -0.8490     0.5680 hc         1 BC7       0.024367
     81 H37          4.4090     4.1210    10.2630 hc         1 BC7       0.015033
     82 H38          2.8660     4.9860    10.2420 hc         1 BC7       0.015033
     83 H39          3.0500     3.5290    11.2300 hc         1 BC7       0.015033
     84 H40          3.7220     1.5770     7.9340 hc         1 BC7       0.015033
     85 H41          3.6010     1.2040     9.6590 hc         1 BC7       0.015033
     86 H42          4.8470     2.3180     9.0810 hc         1 BC7       0.015033
     87 H44         -3.4460     1.3700     7.0910 ho         1 BC7       0.398000
     88 H45          3.6800     4.3750     7.8300 ho         1 BC7       0.396000
     89 H26         -8.3550     2.7240     7.0120 h1         1 BC7       0.022200
@<TRIPOS>BOND
     1     1    29 1   
     2     1    39 1   
     3     1    42 2   
     4     2     3 1   
     5     2    39 1   
     6     2    46 1   
     7     2    47 1   
     8     3     4 1   
     9     3    48 1   
    10     3    49 1   
    11     4    32 2   
    12     4    37 1   
    13     5    32 1   
    14     5    39 1   
    15     5    50 1   
    16     5    51 1   
    17     6    15 1   
    18     6    32 1   
    19     6    36 2   
    20     7     8 1   
    21     7    37 1   
    22     7    52 1   
    23     7    53 1   
    24     8     9 1   
    25     8    41 1   
    26     8    54 1   
    27     9    38 1   
    28     9    55 1   
    29     9    56 1   
    30    10    12 1   
    31    10    38 1   
    32    10    57 1   
    33    10    58 1   
    34    11    12 1   
    35    11    13 1   
    36    11    14 1   
    37    11    59 1   
    38    12    60 1   
    39    12    61 1   
    40    13    21 1   
    41    13    62 1   
    42    13    63 1   
    43    14    30 1   
    44    14    31 1   
    45    14    44 1   
    46    15    16 ar  
    47    15    20 ar  
    48    16    17 ar  
    49    16    64 1   
    50    17    18 ar  
    51    17    65 1   
    52    18    19 ar  
    53    18    28 1   
    54    19    20 ar  
    55    19    45 1   
    56    20    66 1   
    57    21    38 1   
    58    21    67 1   
    59    21    68 1   
    60    22    23 1   
    61    22    45 1   
    62    22    69 1   
    63    22    70 1   
    64    23    40 1   
    65    23    43 2   
    66    24    25 1   
    67    24    40 1   
    68    24    71 1   
    69    24    89 1   
    70    25    26 1   
    71    25    72 1   
    72    25    73 1   
    73    26    27 1   
    74    26    74 1   
    75    26    75 1   
    76    27    40 1   
    77    27    76 1   
    78    27    77 1   
    79    28    33 1   
    80    28    34 1   
    81    28    35 1   
    82    29    78 1   
    83    29    79 1   
    84    29    80 1   
    85    30    81 1   
    86    30    82 1   
    87    30    83 1   
    88    31    84 1   
    89    31    85 1   
    90    31    86 1   
    91    36    37 1   
    92    41    87 1   
    93    44    88 1   
@<TRIPOS>SUBSTRUCTURE
     1 BC7         1 TEMP              0 ****  ****    0 ROOT
