@<TRIPOS>MOLECULE
molecule
   33    32     1     0     0
SMALL
bcc


@<TRIPOS>ATOM
      1 OAA          0.0000     0.0000     0.0000 o          1 BC8      -0.885300
      2 CAB          1.3430     0.0000     0.0000 c          1 BC8       0.897100
      3 OAH          1.9470     0.0000     1.0460 o          1 BC8      -0.885300
      4 CAC          2.0950     0.0010    -1.3050 c3         1 BC8      -0.180400
      5 CAD          3.5930     0.1590    -1.0310 c3         1 BC8       0.121800
      6 CAE          3.8510     1.5210    -0.3810 c3         1 BC8      -0.180400
      7 CAF          3.4540     2.6160    -1.3370 c          1 BC8       0.897100
      8 OAL          3.6260     3.9020    -0.9940 o          1 BC8      -0.885300
      9 OAV          2.9800     2.3370    -2.4130 o          1 BC8      -0.885300
     10 OAI          4.0280    -0.8780    -0.1500 oh         1 BC8      -0.616800
     11 CAJ          4.3540     0.0690    -2.3280 c          1 BC8       0.652100
     12 OAK          3.7890     0.2840    -3.3800 o          1 BC8      -0.607100
     13 N            5.6630    -0.2500    -2.3200 ns         1 BC8      -0.558900
     14 CA           6.4290    -0.2300    -3.5680 c3         1 BC8       0.012700
     15 C            6.2610    -1.5470    -4.2820 c          1 BC8       0.895600
     16 O            5.5710    -2.4130    -3.7970 o          1 BC8      -0.890300
     17 OXT          6.8770    -1.7590    -5.4560 o          1 BC8      -0.890300
     18 CB           7.9100    -0.0060    -3.2550 c3         1 BC8      -0.057400
     19 CG           8.0970     1.3850    -2.6440 c3         1 BC8      -0.181400
     20 CD           9.5550     1.6060    -2.3350 c          1 BC8       0.893600
     21 OE1         10.3620     0.7400    -2.5790 o          1 BC8      -0.900800
     22 OE2          9.9570     2.7630    -1.7890 o          1 BC8      -0.900800
     23 H2           1.9200    -0.9340    -1.8240 hc         1 BC8       0.057450
     24 H3           1.7520     0.8250    -1.9200 hc         1 BC8       0.057450
     25 H4           3.2660     1.6050     0.5270 hc         1 BC8       0.057450
     26 H5           4.9040     1.6140    -0.1430 hc         1 BC8       0.057450
     27 H7           3.6520    -1.6990    -0.4210 ho         1 BC8       0.377000
     28 H8           6.1030    -0.5340    -1.4680 hn         1 BC8       0.298500
     29 H9           6.0690     0.5720    -4.2010 h1         1 BC8       0.067700
     30 H11          8.4880    -0.0800    -4.1690 hc         1 BC8       0.037700
     31 H12          8.2490    -0.7570    -2.5520 hc         1 BC8       0.037700
     32 H13          7.7600     2.1360    -3.3480 hc         1 BC8       0.043200
     33 H14          7.5190     1.4590    -1.7310 hc         1 BC8       0.043200
@<TRIPOS>BOND
     1    16    15 1
     2    21    20 1
     3    20    19 1
     4    20    22 1
     5    17    15 1
     6    15    14 1
     7    19    18 1
     8    18    14 1
     9    14    13 1
    10    13    11 1
    11    12    11 2
    12    11     5 1
    13     6     5 1
    14     6     7 1
    15     9     7 1
    16     5    10 1
    17     5     4 1
    18     7     8 1
    19     3     2 1
    20     4     2 1
    21     2     1 1
    22     4    23 1
    23     4    24 1
    24     6    25 1
    25     6    26 1
    26    10    27 1
    27    13    28 1
    28    14    29 1
    29    18    30 1
    30    18    31 1
    31    19    32 1
    32    19    33 1
@<TRIPOS>SUBSTRUCTURE
     1 BC8         1 TEMP              0 ****  ****    0 ROOT
