@<TRIPOS>MOLECULE
BC8
   33    32     1     0     0
SMALL
bcc


@<TRIPOS>ATOM
      1 OAA          0.0000     0.0000     0.0000 o          1 BC8      -0.933300
      2 CAB          1.3430     0.0000     0.0000 c          1 BC8       0.992100
      3 OAH          1.9470     0.0000     1.0460 o          1 BC8      -0.933300
      4 CAC          2.0950     0.0010    -1.3050 c3         1 BC8      -0.166900
      5 CAD          3.5930     0.1590    -1.0310 c3         1 BC8       0.150800
      6 CAE          3.8510     1.5210    -0.3810 c3         1 BC8      -0.166900
      7 CAF          3.4540     2.6160    -1.3370 c          1 BC8       0.992100
      8 OAL          3.6260     3.9020    -0.9940 o          1 BC8      -0.933300
      9 OAV          2.9800     2.3370    -2.4130 o          1 BC8      -0.933300
     10 OAI          4.0280    -0.8780    -0.1500 oh         1 BC8      -0.604800
     11 CAJ          4.3540     0.0690    -2.3280 c          1 BC8       0.557100
     12 OAK          3.7890     0.2840    -3.3800 o          1 BC8      -0.641100
     13 N            5.6630    -0.2500    -2.3200 ns         1 BC8      -0.166900
     14 CA           6.4290    -0.2300    -3.5680 c3         1 BC8      -0.093300
     15 C            6.2610    -1.5470    -4.2820 c          1 BC8       0.992600
     16 O            5.5710    -2.4130    -3.7970 o          1 BC8      -0.938800
     17 OXT          6.8770    -1.7590    -5.4560 o          1 BC8      -0.938800
     18 CB           7.9100    -0.0060    -3.2550 c3         1 BC8      -0.011400
     19 CG           8.0970     1.3850    -2.6440 c3         1 BC8      -0.143400
     20 CD           9.5550     1.6060    -2.3350 c          1 BC8       0.991600
     21 OE1         10.3620     0.7400    -2.5790 o          1 BC8      -0.947800
     22 OE2          9.9570     2.7630    -1.7890 o          1 BC8      -0.947800
     23 H2           1.9200    -0.9340    -1.8240 hc         1 BC8       0.040700
     24 H3           1.7520     0.8250    -1.9200 hc         1 BC8       0.040700
     25 H4           3.2660     1.6050     0.5270 hc         1 BC8       0.040700
     26 H5           4.9040     1.6140    -0.1430 hc         1 BC8       0.040700
     27 H7           3.6520    -1.6990    -0.4210 ho         1 BC8       0.369000
     28 H8           6.1030    -0.5340    -1.4680 hn         1 BC8       0.161500
     29 H9           6.0690     0.5720    -4.2010 h1         1 BC8       0.052700
     30 H11          8.4880    -0.0800    -4.1690 hc         1 BC8       0.017200
     31 H12          8.2490    -0.7570    -2.5520 hc         1 BC8       0.017200
     32 H13          7.7600     2.1360    -3.3480 hc         1 BC8       0.021200
     33 H14          7.5190     1.4590    -1.7310 hc         1 BC8       0.021200
@<TRIPOS>BOND
     1     1     2 1   
     2     2     3 1   
     3     2     4 1   
     4     4     5 1   
     5     4    23 1   
     6     4    24 1   
     7     5     6 1   
     8     5    10 1   
     9     5    11 1   
    10     6     7 1   
    11     6    25 1   
    12     6    26 1   
    13     7     8 1   
    14     7     9 1   
    15    10    27 1   
    16    11    12 2   
    17    11    13 1   
    18    13    14 1   
    19    13    28 1   
    20    14    15 1   
    21    14    18 1   
    22    14    29 1   
    23    15    16 1   
    24    15    17 1   
    25    18    19 1   
    26    18    30 1   
    27    18    31 1   
    28    19    20 1   
    29    19    32 1   
    30    19    33 1   
    31    20    21 1   
    32    20    22 1   
@<TRIPOS>SUBSTRUCTURE
     1 BC8         1 TEMP              0 ****  ****    0 ROOT
