@<TRIPOS>MOLECULE
molecule
   35    36     1     0     0
SMALL
bcc


@<TRIPOS>ATOM
      1 CAI          0.0000     0.0000     0.0000 ca         1 BCE      -0.119500
      2 CAG          1.3800     0.0000     0.0000 ca         1 BCE      -0.126500
      3 CAF          2.0750     0.0000     1.1970 ca         1 BCE      -0.128000
      4 CAH          1.3910     0.0000     2.3990 ca         1 BCE      -0.126500
      5 CAJ          0.0110     0.0000     2.4100 ca         1 BCE      -0.119500
      6 CAT         -0.6930     0.0000     1.2090 cp         1 BCE      -0.033000
      7 CAU         -2.1770     0.0010     1.2140 cp         1 BCE      -0.042000
      8 CAN         -2.8700     0.0010     2.4240 ca         1 BCE      -0.110000
      9 CAL         -4.2490     0.0020     2.4290 ca         1 BCE      -0.126500
     10 CAM         -2.8810     0.0070     0.0110 ca         1 BCE      -0.110000
     11 CAK         -4.2590     0.0070     0.0190 ca         1 BCE      -0.126500
     12 CAS         -4.9480     0.0020     1.2270 ca         1 BCE       0.002600
     13 NAO         -6.3450     0.0020     1.2330 ns         1 BCE      -0.361100
     14 CAQ         -7.0230    -0.6390     0.2610 c          1 BCE       0.613300
     15 OAC         -6.4220    -1.2980    -0.5670 o          1 BCE      -0.571100
     16 CAR         -8.4890    -0.5430     0.2010 ce         1 BCE      -0.154900
     17 CAE         -9.1960     0.2320     1.1750 cg         1 BCE       0.209500
     18 NAB         -9.7550     0.8330     1.9610 n1         1 BCE      -0.354800
     19 CAP         -9.1740    -1.1920    -0.7830 c2         1 BCE       0.203900
     20 CAA        -10.6770    -1.0930    -0.8440 c3         1 BCE      -0.106900
     21 OAD         -8.5110    -1.9190    -1.6980 oh         1 BCE      -0.467100
     22 HAI         -0.5420     0.0000    -0.9380 ha         1 BCE       0.133000
     23 HAG          1.9220    -0.0000    -0.9380 ha         1 BCE       0.130000
     24 HAF          3.1590     0.0000     1.1940 ha         1 BCE       0.129000
     25 HAH          1.9380     0.0000     3.3340 ha         1 BCE       0.130000
     26 HAJ         -0.5230     0.0010     3.3530 ha         1 BCE       0.133000
     27 HAN         -2.3250     0.0010     3.3610 ha         1 BCE       0.137000
     28 HAL         -4.7870     0.0020     3.3690 ha         1 BCE       0.149000
     29 HAM         -2.3440     0.0110    -0.9300 ha         1 BCE       0.137000
     30 HAK         -4.8060     0.0120    -0.9160 ha         1 BCE       0.149000
     31 HNAO        -6.8440    -0.7450     1.6750 hn         1 BCE       0.278500
     32 HAA        -11.0390    -1.6340    -1.7100 hc         1 BCE       0.070033
     33 HAAA       -11.1040    -1.5230     0.0540 hc         1 BCE       0.070033
     34 HAAB       -10.9680    -0.0520    -0.9200 hc         1 BCE       0.070033
     35 HOAD        -8.8440    -2.8010    -1.6990 ho         1 BCE       0.438000
@<TRIPOS>BOND
     1     1     2 ar
     2     1     6 ar
     3     2     3 ar
     4     3     4 ar
     5     4     5 ar
     6     5     6 ar
     7     6     7 1
     8     7     8 ar
     9     7    10 ar
    10     8     9 ar
    11     9    12 ar
    12    10    11 ar
    13    11    12 ar
    14    12    13 1
    15    13    14 1
    16    14    15 2
    17    14    16 1
    18    16    17 1
    19    16    19 2
    20    17    18 3
    21    19    20 1
    22    19    21 1
    23     1    22 1
    24     2    23 1
    25     3    24 1
    26     4    25 1
    27     5    26 1
    28     8    27 1
    29     9    28 1
    30    10    29 1
    31    11    30 1
    32    13    31 1
    33    20    32 1
    34    20    33 1
    35    20    34 1
    36    21    35 1
@<TRIPOS>SUBSTRUCTURE
     1 BCE         1 TEMP              0 ****  ****    0 ROOT
