@<TRIPOS>MOLECULE
BCE
   35    36     1     0     0
SMALL
bcc


@<TRIPOS>ATOM
      1 CAI          0.0000     0.0000     0.0000 ca         1 BCE      -0.104000
      2 CAG          1.3800     0.0000     0.0000 ca         1 BCE      -0.131000
      3 CAF          2.0750     0.0000     1.1970 ca         1 BCE      -0.126000
      4 CAH          1.3910     0.0000     2.3990 ca         1 BCE      -0.131000
      5 CAJ          0.0110     0.0000     2.4100 ca         1 BCE      -0.104000
      6 CAT         -0.6930     0.0000     1.2090 cp         1 BCE       0.013000
      7 CAU         -2.1770     0.0010     1.2140 cp         1 BCE      -0.073000
      8 CAN         -2.8700     0.0010     2.4240 ca         1 BCE      -0.076000
      9 CAL         -4.2490     0.0020     2.4290 ca         1 BCE      -0.108000
     10 CAM         -2.8810     0.0070     0.0110 ca         1 BCE      -0.076000
     11 CAK         -4.2590     0.0070     0.0190 ca         1 BCE      -0.108000
     12 CAS         -4.9480     0.0020     1.2270 ca         1 BCE      -0.072400
     13 NAO         -6.3450     0.0020     1.2330 ns         1 BCE      -0.039100
     14 CAQ         -7.0230    -0.6390     0.2610 c          1 BCE       0.577300
     15 OAC         -6.4220    -1.2980    -0.5670 o          1 BCE      -0.620100
     16 CAR         -8.4890    -0.5430     0.2010 ce         1 BCE      -0.170900
     17 CAE         -9.1960     0.2320     1.1750 cg         1 BCE       0.209500
     18 NAB         -9.7480     0.8630     1.9420 n1         1 BCE      -0.394800
     19 CAP         -9.1740    -1.1920    -0.7830 c2         1 BCE       0.258900
     20 CAA        -10.6770    -1.0930    -0.8440 c3         1 BCE      -0.032900
     21 OAD         -8.5110    -1.9190    -1.6980 oh         1 BCE      -0.444100
     22 HAI         -0.1330    -0.0190    -1.0750 ha         1 BCE       0.119500
     23 HAG          2.2450     0.3200    -0.5690 ha         1 BCE       0.119500
     24 HAF          3.0840     0.3280     1.4190 ha         1 BCE       0.106000
     25 HAH          1.6220    -0.2030     3.4380 ha         1 BCE       0.119500
     26 HAJ         -0.5010    -0.2570     3.3300 ha         1 BCE       0.119500
     27 HAN         -2.1920    -0.2300     3.2370 ha         1 BCE       0.115000
     28 HAL         -4.8700    -0.1210     3.3070 ha         1 BCE       0.119500
     29 HAM         -2.3250     0.3490    -0.8540 ha         1 BCE       0.115000
     30 HAK         -4.8360     0.1090    -0.8920 ha         1 BCE       0.119500
     31 HNAO        -7.0280     0.1920     1.9400 hn         1 BCE       0.178500
     32 HAA        -10.8480    -0.2150    -1.4550 hc         1 BCE       0.032367
     33 HAAA       -11.0250    -1.6260    -1.7210 hc         1 BCE       0.032367
     34 HAAB       -11.3530    -1.0750     0.0020 hc         1 BCE       0.032367
     35 HOAD        -8.8840    -2.7480    -1.9480 ho         1 BCE       0.421000
@<TRIPOS>BOND
     1     1     2 ar  
     2     1     6 ar  
     3     1    22 1   
     4     2     3 ar  
     5     2    23 1   
     6     3     4 ar  
     7     3    24 1   
     8     4     5 ar  
     9     4    25 1   
    10     5     6 ar  
    11     5    26 1   
    12     6     7 1   
    13     7     8 ar  
    14     7    10 ar  
    15     8     9 ar  
    16     8    27 1   
    17     9    12 ar  
    18     9    28 1   
    19    10    11 ar  
    20    10    29 1   
    21    11    12 ar  
    22    11    30 1   
    23    12    13 1   
    24    13    14 1   
    25    13    31 1   
    26    14    15 2   
    27    14    16 1   
    28    16    17 1   
    29    16    19 2   
    30    17    18 3   
    31    19    20 1   
    32    19    21 1   
    33    20    32 1   
    34    20    33 1   
    35    20    34 1   
    36    21    35 1   
@<TRIPOS>SUBSTRUCTURE
     1 BCE         1 TEMP              0 ****  ****    0 ROOT
