@<TRIPOS>MOLECULE
BCF
   12    12     1     0     0
SMALL
bcc


@<TRIPOS>ATOM
      1 F6          1.0720   -2.4050    0.0010 f         1 BCF     -0.095900
      2 C6          0.4280   -1.2180    0.0010 ca        1 BCF      0.133900
      3 C1          1.1380   -0.0000    0.0010 ca        1 BCF     -0.039600
      4 CL1         2.8290   -0.0000    0.0010 cl        1 BCF     -0.010400
      5 C5         -0.9920   -1.2230    0.0000 ca        1 BCF      0.074900
      6 F5         -1.6600   -2.3940    0.0000 f         1 BCF     -0.095900
      7 C4         -1.7030    0.0000    0.0000 ca        1 BCF      0.107900
      8 F4         -3.0510    0.0000   -0.0000 f         1 BCF     -0.093900
      9 C3         -0.9920    1.2230    0.0000 ca        1 BCF      0.074900
     10 F3         -1.6600    2.3940    0.0000 f         1 BCF     -0.095900
     11 C2          0.4280    1.2180    0.0010 ca        1 BCF      0.133900
     12 F2          1.0720    2.4050    0.0010 f         1 BCF     -0.095900
@<TRIPOS>BOND
     1    1    2 1   
     2    2    3 ar  
     3    2    5 ar  
     4    3    4 1   
     5    3   11 ar  
     6    5    6 1   
     7    5    7 ar  
     8    7    8 1   
     9    7    9 ar  
    10    9   10 1   
    11    9   11 ar  
    12   11   12 1   
@<TRIPOS>SUBSTRUCTURE
     1 BCF         1 TEMP              0 ****  ****    0 ROOT
