@<TRIPOS>MOLECULE
molecule
   12    12     1     0     0
SMALL
bcc


@<TRIPOS>ATOM
      1 F6           1.0790    -2.3690     0.0040 f          1 BCF      -0.095900
      2 C6           0.4030    -1.1990     0.0040 ca         1 BCF       0.139900
      3 C1           1.0960     0.0000     0.0010 ca         1 BCF      -0.037600
      4 Cl1          2.8320     0.0000    -0.0020 cl         1 BCF      -0.028400
      5 C5          -0.9830    -1.2000     0.0000 ca         1 BCF       0.077900
      6 F5          -1.6580    -2.3700    -0.0030 f          1 BCF      -0.097900
      7 C4          -1.6760    -0.0000    -0.0000 ca         1 BCF       0.109900
      8 F4          -3.0270    -0.0000    -0.0030 f          1 BCF      -0.094900
      9 C3          -0.9830     1.2000     0.0030 ca         1 BCF       0.077900
     10 F3          -1.6580     2.3700     0.0030 f          1 BCF      -0.097900
     11 C2           0.4030     1.1990     0.0010 ca         1 BCF       0.139900
     12 F2           1.0790     2.3690    -0.0020 f          1 BCF      -0.095900
@<TRIPOS>BOND
     1     1     2 1
     2     2     3 ar
     3     2     5 ar
     4     3     4 1
     5     3    11 ar
     6     5     6 1
     7     5     7 ar
     8     7     8 1
     9     7     9 ar
    10     9    10 1
    11     9    11 ar
    12    11    12 1
@<TRIPOS>SUBSTRUCTURE
     1 BCF         1 TEMP              0 ****  ****    0 ROOT
