@<TRIPOS>MOLECULE
molecule
   39    41     1     0     0
SMALL
bcc


@<TRIPOS>ATOM
      1 C1           0.0000     0.0000     0.0000 c3         1 BCG       0.173500
      2 C2           1.5370     0.0000     0.0000 c3         1 BCG      -0.168700
      3 C3           2.0320     0.0000     1.4490 c3         1 BCG       0.182100
      4 C4           1.3720     1.1970     2.2210 c3         1 BCG      -0.083400
      5 C5          -0.1520     1.0910     2.0570 c3         1 BCG       0.137500
      6 C6          -0.5740    -0.3660     2.3510 c3         1 BCG      -0.122400
      7 C7          -0.4730    -1.0880     0.9910 c3         1 BCG      -0.130400
      8 C9           5.6660    -0.2630     2.4790 ca         1 BCG      -0.122600
      9 C10          6.3140     0.4380     1.4600 ca         1 BCG      -0.069500
     10 C11          7.6860     0.5740     1.4850 ca         1 BCG      -0.159500
     11 C12          8.4220     0.0080     2.5110 ca         1 BCG      -0.117000
     12 C13          7.7880    -0.6930     3.5200 ca         1 BCG      -0.159500
     13 C14          6.4150    -0.8300     3.5110 ca         1 BCG      -0.069500
     14 C15          2.0410     1.2310    -0.7080 c          1 BCG       0.899600
     15 N1          -0.4550     1.2750     0.6130 n3         1 BCG      -0.590600
     16 O1           3.4760     0.1420     1.4660 os         1 BCG      -0.356900
     17 O2           3.6370    -1.0220     3.3470 o          1 BCG      -0.599000
     18 O3           3.3610     1.4420    -0.8290 o          1 BCG      -0.835300
     19 O4           1.2580     2.0270    -1.1670 o          1 BCG      -0.835300
     20 H1          -0.4100    -0.1450    -0.9920 h1         1 BCG       0.077700
     21 H2           1.9000    -0.8850    -0.5080 hc         1 BCG       0.048700
     22 H3           1.7560    -0.9330     1.9250 h1         1 BCG       0.038700
     23 H41          1.7200     2.1360     1.8070 hc         1 BCG       0.061200
     24 H42          1.6320     1.1430     3.2710 hc         1 BCG       0.061200
     25 H5          -0.6820     1.8030     2.6790 h1         1 BCG       0.055700
     26 H61         -1.5920    -0.3970     2.7200 hc         1 BCG       0.038200
     27 H62          0.1020    -0.8170     3.0680 hc         1 BCG       0.038200
     28 H71          0.2520    -1.8910     1.0430 hc         1 BCG       0.035200
     29 H72         -1.4420    -1.4720     0.6950 hc         1 BCG       0.035200
     30 H10          5.7390     0.8810     0.6560 ha         1 BCG       0.172500
     31 H11          8.1900     1.1190     0.6960 ha         1 BCG       0.124500
     32 H12          9.5000     0.1160     2.5240 ha         1 BCG       0.115000
     33 H13          8.3710    -1.1330     4.3200 ha         1 BCG       0.124500
     34 H14          5.9200    -1.3800     4.3020 ha         1 BCG       0.172500
     35 H161        -2.3670     1.2200     1.4690 h1         1 BCG       0.021700
     36 H162        -2.2440     0.4790    -0.1320 h1         1 BCG       0.021700
     37 H163        -2.2210     2.2400     0.0320 h1         1 BCG       0.021700
     38 C8           4.1960    -0.4070     2.4620 c          1 BCG       0.645700
     39 C16         -1.9170     1.3060     0.4870 c3         1 BCG       0.120100
@<TRIPOS>BOND
     1     1     2 1
     2     1     7 1
     3     1    15 1
     4     1    20 1
     5     2     3 1
     6     2    14 1
     7     2    21 1
     8     3     4 1
     9     3    16 1
    10     3    22 1
    11     4     5 1
    12     4    23 1
    13     4    24 1
    14     5     6 1
    15     5    15 1
    16     5    25 1
    17     6     7 1
    18     6    26 1
    19     6    27 1
    20     7    28 1
    21     7    29 1
    22    38     8 1
    23    38    16 1
    24    38    17 2
    25     8     9 ar
    26     8    13 ar
    27     9    10 ar
    28     9    30 1
    29    10    11 ar
    30    10    31 1
    31    11    12 ar
    32    11    32 1
    33    12    13 ar
    34    12    33 1
    35    13    34 1
    36    14    18 1
    37    14    19 1
    38    39    15 1
    39    39    35 1
    40    39    36 1
    41    39    37 1
@<TRIPOS>SUBSTRUCTURE
     1 BCG         1 TEMP              0 ****  ****    0 ROOT
