@<TRIPOS>MOLECULE
molecule
   32    31     1     0     0
SMALL
bcc


@<TRIPOS>ATOM
      1 C21          0.0000     0.0000     0.0000 c3         1 BCH      -0.093100
      2 C20          1.5290     0.0000     0.0000 c3         1 BCH      -0.073400
      3 C19          2.0400     0.0000     1.4430 c3         1 BCH      -0.159400
      4 C18          3.5460    -0.0000     1.4420 c          1 BCH       0.582700
      5 O12          4.1530    -0.0000     0.3920 o          1 BCH      -0.522100
      6 S17          4.4020    -0.0000     2.9250 ss         1 BCH      -0.230700
      7 C16          6.1040    -0.0000     2.3060 c3         1 BCH      -0.043300
      8 C15          7.0770    -0.0000     3.4860 c3         1 BCH       0.119800
      9 N14          8.4570    -0.0000     2.9840 n4         1 BCH      -0.576800
     10 C13          8.6800     1.1990     2.1660 c3         1 BCH       0.092100
     11 C22          9.3910    -0.0000     4.1180 c3         1 BCH       0.092100
     12 C11          8.6800    -1.1990     2.1660 c3         1 BCH       0.092100
     13 H211        -0.3610     0.8840     0.5110 hc         1 BCH       0.043367
     14 H212        -0.3610    -0.8850     0.5110 hc         1 BCH       0.043367
     15 H213        -0.3610     0.0000    -1.0210 hc         1 BCH       0.043367
     16 H201         1.8910    -0.8840    -0.5110 hc         1 BCH       0.057700
     17 H202         1.8910     0.8840    -0.5110 hc         1 BCH       0.057700
     18 H191         1.6790    -0.8850     1.9540 hc         1 BCH       0.083700
     19 H192         1.6790     0.8850     1.9540 hc         1 BCH       0.083700
     20 H161         6.2680    -0.8840     1.7020 h1         1 BCH       0.090700
     21 H162         6.2680     0.8840     1.7020 h1         1 BCH       0.090700
     22 H151         6.9120     0.8840     4.0890 hx         1 BCH       0.110700
     23 H152         6.9120    -0.8840     4.0890 hx         1 BCH       0.110700
     24 H131         8.1610     2.0400     2.6090 hx         1 BCH       0.100589
     25 H132         9.7410     1.4120     2.1190 hx         1 BCH       0.100589
     26 H133         8.3020     1.0290     1.1650 hx         1 BCH       0.100589
     27 H221         9.2260     0.8840     4.7210 hx         1 BCH       0.100589
     28 H222         9.2260    -0.8840     4.7210 hx         1 BCH       0.100589
     29 H223        10.4090    -0.0000     3.7470 hx         1 BCH       0.100589
     30 H111         8.1610    -2.0400     2.6090 hx         1 BCH       0.100589
     31 H112         9.7410    -1.4120     2.1190 hx         1 BCH       0.100589
     32 H113         8.3020    -1.0290     1.1650 hx         1 BCH       0.100589
@<TRIPOS>BOND
     1     1     2 1
     2     1    13 1
     3     1    14 1
     4     1    15 1
     5     2     3 1
     6     2    16 1
     7     2    17 1
     8     3     4 1
     9     3    18 1
    10     3    19 1
    11     4     5 2
    12     4     6 1
    13     6     7 1
    14     7     8 1
    15     7    20 1
    16     7    21 1
    17     8     9 1
    18     8    22 1
    19     8    23 1
    20     9    10 1
    21     9    11 1
    22     9    12 1
    23    10    24 1
    24    10    25 1
    25    10    26 1
    26    11    27 1
    27    11    28 1
    28    11    29 1
    29    12    30 1
    30    12    31 1
    31    12    32 1
@<TRIPOS>SUBSTRUCTURE
     1 BCH         1 TEMP              0 ****  ****    0 ROOT
