@<TRIPOS>MOLECULE
molecule
   26    27     1     0     0
SMALL
bcc


@<TRIPOS>ATOM
      1 O13          0.0000     0.0000     0.0000 oh         1 BCK      -0.610800
      2 C12          1.4290     0.0000     0.0000 c3         1 BCK       0.225700
      3 C3           1.9320     0.0000     1.4210 cc         1 BCK      -0.293600
      4 C4           1.1420    -0.0070     2.5710 cc         1 BCK       0.361200
      5 N5           1.9290    -0.0060     3.6180 nd         1 BCK      -0.512800
      6 N1           3.2570     0.0030     3.1750 na         1 BCK       0.069400
      7 C14          4.4510     0.0070     4.0230 c3         1 BCK       0.065600
      8 C2           3.2400     0.0000     1.8120 cd         1 BCK      -0.024300
      9 C6           4.4220     0.0010     0.9200 ca         1 BCK      -0.026000
     10 C11          5.4940     0.8540     1.1790 ca         1 BCK      -0.114000
     11 C10          6.5920     0.8500     0.3440 ca         1 BCK      -0.128000
     12 C9           6.6310     0.0020    -0.7480 ca         1 BCK      -0.121000
     13 C8           5.5710    -0.8460    -1.0100 ca         1 BCK      -0.128000
     14 C7           4.4690    -0.8560    -0.1790 ca         1 BCK      -0.114000
     15 H1          -0.3140     0.0790    -0.8850 ho         1 BCK       0.403000
     16 H2           1.7900     0.8850    -0.5110 h1         1 BCK       0.024700
     17 H3           1.7900    -0.8850    -0.5110 h1         1 BCK       0.024700
     18 H4           0.0590    -0.0140     2.5940 h4         1 BCK       0.062100
     19 H5           5.1650    -0.7150     3.6450 h1         1 BCK       0.054367
     20 H6           4.8970     0.9940     4.0150 h1         1 BCK       0.054367
     21 H7           4.1750    -0.2550     5.0370 h1         1 BCK       0.054367
     22 H8           5.4650     1.5180     2.0340 ha         1 BCK       0.138000
     23 H9           7.4260     1.5120     0.5450 ha         1 BCK       0.133500
     24 H10          7.4950     0.0040    -1.4020 ha         1 BCK       0.132000
     25 H11          5.6090    -1.5100    -1.8660 ha         1 BCK       0.133500
     26 H12          3.6390    -1.5210    -0.3860 ha         1 BCK       0.138000
@<TRIPOS>BOND
     1     2     1 1
     2     2     3 1
     3     4     3 1
     4     4     5 2
     5     3     8 2
     6     5     6 1
     7     8     6 1
     8     8     9 1
     9    14     9 ar
    10    14    13 ar
    11     6     7 1
    12     9    10 ar
    13    13    12 ar
    14    10    11 ar
    15    12    11 ar
    16     1    15 1
    17     2    16 1
    18     2    17 1
    19     4    18 1
    20     7    19 1
    21     7    20 1
    22     7    21 1
    23    10    22 1
    24    11    23 1
    25    12    24 1
    26    13    25 1
    27    14    26 1
@<TRIPOS>SUBSTRUCTURE
     1 BCK         1 TEMP              0 ****  ****    0 ROOT
