@<TRIPOS>MOLECULE
molecule
   39    40     1     0     0
SMALL
bcc


@<TRIPOS>ATOM
      1 C5A          0.0000     0.0000     0.0000 c2         1 BCM      -0.155000
      2 C5           1.3100     0.0000     0.0000 c2         1 BCM      -0.163400
      3 C6           2.0140     0.0000     1.3170 c3         1 BCM       0.298400
      4 O6           1.0980     0.3350     2.3620 oh         1 BCM      -0.557800
      5 N10          3.0610     1.0430     1.2030 ns         1 BCM      -0.600900
      6 C9           4.1210     0.7290     0.4270 c          1 BCM       0.698500
      7 O9           4.8580     1.6080     0.0310 o          1 BCM      -0.602500
      8 C4           2.0190    -0.0010    -1.3240 c3         1 BCM      -0.072200
      9 C3           2.7710    -1.3230    -1.4870 c3         1 BCM       0.109400
     10 O2           4.2270    -1.1160    -1.2540 os         1 BCM      -0.336600
     11 C1           4.4100    -0.6710     0.0740 c3         1 BCM       0.210200
     12 N8           3.8440    -1.6470     1.0230 ns         1 BCM      -0.585900
     13 C7           2.6680    -1.3130     1.6090 c          1 BCM       0.652500
     14 O7           2.1410    -2.0880     2.3790 o          1 BCM      -0.595500
     15 C1A          5.9180    -0.8030     0.2980 c3         1 BCM       0.121100
     16 O1A          6.1850    -0.9080     1.6970 oh         1 BCM      -0.612800
     17 C2A          6.4310    -2.0570    -0.4140 c3         1 BCM       0.161800
     18 C2B          5.5610    -3.2550    -0.0290 c3         1 BCM      -0.115100
     19 O2A          6.3700    -1.8590    -1.8290 oh         1 BCM      -0.572800
     20 C3A          7.8790    -2.3230     0.0010 c3         1 BCM       0.101400
     21 O3A          8.3580    -3.4930    -0.6640 oh         1 BCM      -0.609800
     22 H5A1        -0.5420     0.0000     0.9380 ha         1 BCM       0.130000
     23 H5A2        -0.5420     0.0200    -0.9380 ha         1 BCM       0.130000
     24 HO6          1.5640     0.7610     3.0630 ho         1 BCM       0.417000
     25 H10          3.1490     1.7440     1.9120 hn         1 BCM       0.332500
     26 H41          2.7220     0.8230    -1.3590 hc         1 BCM       0.073200
     27 H42          1.2960     0.1060    -2.1230 hc         1 BCM       0.073200
     28 H31          2.3910    -2.0430    -0.7710 h1         1 BCM       0.069200
     29 H32          2.6190    -1.7010    -2.4900 h1         1 BCM       0.069200
     30 HN8          4.4340    -2.3380     1.4420 hn         1 BCM       0.368500
     31 H1A          6.4210     0.0700    -0.1010 h1         1 BCM       0.087700
     32 H1O          6.7910    -0.2330     1.9530 ho         1 BCM       0.417000
     33 HB1          4.5270    -3.0450    -0.2750 hc         1 BCM       0.057367
     34 HB2          5.6490    -3.4380     1.0350 hc         1 BCM       0.057367
     35 HB3          5.8900    -4.1310    -0.5740 hc         1 BCM       0.057367
     36 H2O          7.2000    -2.0890    -2.2150 ho         1 BCM       0.410000
     37 HA1          8.4950    -1.4750    -0.2730 h1         1 BCM       0.033700
     38 HA2          7.9260    -2.4720     1.0730 h1         1 BCM       0.033700
     39 H3O          9.2720    -3.6150    -0.4670 ho         1 BCM       0.409000
@<TRIPOS>BOND
     1     1     2 2
     2     1    22 1
     3     1    23 1
     4     2     3 1
     5     2     8 1
     6     3     4 1
     7     3     5 1
     8     3    13 1
     9     4    24 1
    10     5     6 1
    11     5    25 1
    12     6     7 2
    13     6    11 1
    14     8     9 1
    15     8    26 1
    16     8    27 1
    17     9    10 1
    18     9    28 1
    19     9    29 1
    20    10    11 1
    21    11    12 1
    22    11    15 1
    23    12    13 1
    24    12    30 1
    25    13    14 2
    26    15    16 1
    27    15    17 1
    28    15    31 1
    29    16    32 1
    30    17    18 1
    31    17    19 1
    32    17    20 1
    33    18    33 1
    34    18    34 1
    35    18    35 1
    36    19    36 1
    37    20    21 1
    38    20    37 1
    39    20    38 1
    40    21    39 1
@<TRIPOS>SUBSTRUCTURE
     1 BCM         1 TEMP              0 ****  ****    0 ROOT
