@<TRIPOS>MOLECULE
BCN
   23    22     1     0     0
SMALL
bcc


@<TRIPOS>ATOM
      1 N1           0.0000     0.0000     0.0000 n3         1 BCN      -0.453600
      2 C1           1.4680     0.0000     0.0000 c3         1 BCN       0.009800
      3 C2           1.9710     0.0000     1.4200 c          1 BCN       0.997600
      4 O21          1.1930    -0.1290     2.3350 o          1 BCN      -0.899800
      5 O22          3.2810     0.1420     1.6680 o          1 BCN      -0.899800
      6 C3          -0.4230     1.4010    -0.1380 c3         1 BCN       0.121800
      7 C4          -0.2150     2.1290     1.1900 c3         1 BCN       0.215900
      8 O4           1.1690     2.4400     1.3530 oh         1 BCN      -0.550300
      9 C5          -0.4230    -0.6910    -1.2250 c3         1 BCN       0.121800
     10 C6          -0.4310    -2.2010    -0.9820 c3         1 BCN       0.215900
     11 O6          -1.4270    -2.5220    -0.0110 oh         1 BCN      -0.550300
     12 H11          1.8290     0.8840    -0.5110 h1         1 BCN       0.008700
     13 H12          1.8290    -0.8840    -0.5110 h1         1 BCN       0.008700
     14 H31          0.1670     1.8810    -0.9100 h1         1 BCN      -0.004050
     15 H32         -1.4710     1.4360    -0.4100 h1         1 BCN      -0.004050
     16 H41         -0.5410     1.4930     2.0050 h1         1 BCN      -0.011050
     17 H42         -0.7940     3.0440     1.1940 h1         1 BCN      -0.011050
     18 HO4          1.2550     3.2980     1.7360 ho         1 BCN       0.358000
     19 H51          0.2670    -0.4580    -2.0270 h1         1 BCN      -0.004050
     20 H52         -1.4180    -0.3630    -1.4980 h1         1 BCN      -0.004050
     21 H61          0.5410    -2.5140    -0.6200 h1         1 BCN      -0.011050
     22 H62         -0.6530    -2.7140    -1.9100 h1         1 BCN      -0.011050
     23 HO6         -1.6410    -3.4380    -0.0720 ho         1 BCN       0.358000
@<TRIPOS>BOND
     1     1     2 1   
     2     1     6 1   
     3     1     9 1   
     4     2     3 1   
     5     2    12 1   
     6     2    13 1   
     7     3     4 1   
     8     3     5 1   
     9     6     7 1   
    10     6    14 1   
    11     6    15 1   
    12     7     8 1   
    13     7    16 1   
    14     7    17 1   
    15     8    18 1   
    16     9    10 1   
    17     9    19 1   
    18     9    20 1   
    19    10    11 1   
    20    10    21 1   
    21    10    22 1   
    22    11    23 1   
@<TRIPOS>SUBSTRUCTURE
     1 BCN         1 TEMP              0 ****  ****    0 ROOT
