@<TRIPOS>MOLECULE
BCP
   13    14     1     0     0
SMALL
bcc


@<TRIPOS>ATOM
      1 CL         -0.0050   -0.0010    0.0040 cl        1 BCP     -0.128000
      2 C6          1.6980   -0.0000    0.0250 ca        1 BCP      0.539300
      3 N1          2.3610   -0.0000    1.1950 nb        1 BCP     -0.653000
      4 C2          3.7360   -0.0000    1.1430 ca        1 BCP      0.689200
      5 BR          4.6060    0.0000    2.8330 br        1 BCP     -0.085200
      6 C5          2.4070   -0.0000   -1.1950 ca        1 BCP     -0.312800
      7 C4          3.8800   -0.0000   -1.1360 ca        1 BCP      0.561300
      8 N3          4.5430   -0.0000    0.0530 nb        1 BCP     -0.595000
      9 N7          2.0690   -0.0010   -2.5420 na        1 BCP     -0.256300
     10 C8          3.2850   -0.0010   -3.2480 cc        1 BCP      0.447700
     11 N9          4.3780   -0.0000   -2.4650 nd        1 BCP     -0.613700
     12 H7          1.1560   -0.0010   -2.9140 hn        1 BCP      0.323700
     13 H8          3.3100   -0.0010   -4.3470 h5        1 BCP      0.082800
@<TRIPOS>BOND
     1    1    2 1   
     2    2    3 ar  
     3    2    6 ar  
     4    3    4 ar  
     5    4    5 1   
     6    4    8 ar  
     7    6    7 ar  
     8    6    9 1   
     9    7    8 ar  
    10    7   11 1   
    11    9   10 1   
    12    9   12 1   
    13   10   11 2   
    14   10   13 1   
@<TRIPOS>SUBSTRUCTURE
     1 BCP         1 TEMP              0 ****  ****    0 ROOT
