@<TRIPOS>MOLECULE
molecule
   13    14     1     0     0
SMALL
bcc


@<TRIPOS>ATOM
      1 Cl           0.0000     0.0000     0.0000 cl         1 BCP      -0.143000
      2 C6           1.7350     0.0000     0.0000 ca         1 BCP       0.579300
      3 N1           2.4120     0.0000     1.1380 nb         1 BCP      -0.705000
      4 C2           3.7320    -0.0000     1.1510 ca         1 BCP       0.749200
      5 Br           4.6280     0.0000     2.8170 br         1 BCP      -0.070200
      6 C5           2.4430    -0.0040    -1.1930 ca         1 BCP      -0.347800
      7 C4           3.8510    -0.0000    -1.1450 ca         1 BCP       0.631300
      8 N3           4.4480    -0.0000     0.0470 nb         1 BCP      -0.662000
      9 N7           2.1090    -0.0000    -2.5320 na         1 BCP      -0.243300
     10 C8           3.2650    -0.0000    -3.2320 cc         1 BCP       0.469700
     11 N9           4.2840    -0.0000    -2.4180 nd         1 BCP      -0.665700
     12 H7           1.1830    -0.0000    -2.9130 hn         1 BCP       0.317700
     13 H8           3.3350     0.0000    -4.3130 h5         1 BCP       0.087800
@<TRIPOS>BOND
     1     1     2 1
     2     2     3 ar
     3     2     6 ar
     4     3     4 ar
     5     4     5 1
     6     4     8 ar
     7     6     7 ar
     8     6     9 1
     9     7     8 ar
    10     7    11 1
    11     9    10 1
    12     9    12 1
    13    10    11 2
    14    10    13 1
@<TRIPOS>SUBSTRUCTURE
     1 BCP         1 TEMP              0 ****  ****    0 ROOT
