@<TRIPOS>MOLECULE
molecule
   87    90     1     0     0
SMALL
bcc


@<TRIPOS>ATOM
      1 N3           0.0000     0.0000     0.0000 n          1 BCQ      -0.501800
      2 O6           1.3820    -1.1130     2.1450 os         1 BCQ      -0.401600
      3 C2           1.4730     0.0000     0.0000 c3         1 BCQ       0.083000
      4 C3           1.9510     0.0000     1.4560 c3         1 BCQ       0.107400
      5 C4          -0.6790    -0.9530     0.8940 c3         1 BCQ       0.083000
      6 C5          -0.0190    -0.8760     2.2710 c3         1 BCQ       0.107400
      7 C1          -0.7010     0.8440    -0.7840 c          1 BCQ       0.818100
      8 O1          -1.9100     0.9020    -0.6860 o          1 BCQ      -0.654100
      9 N           -0.0590     1.6230    -1.6770 ns         1 BCQ      -0.601900
     10 CA          -0.8040     2.6210    -2.4480 c3         1 BCQ       0.097700
     11 C           -1.4500     3.6040    -1.5050 c          1 BCQ       0.648100
     12 C03         -1.8840     1.9230    -3.2760 c3         1 BCQ      -0.239600
     13 S04         -1.1080     0.7410    -4.4110 s6         1 BCQ       1.103000
     14 C12         -2.1940    -0.9410    -6.2480 c2         1 BCQ      -0.324400
     15 C16         -1.5720    -0.6700    -7.5990 c3         1 BCQ       0.179300
     16 C13         -2.3270    -2.2470    -6.1250 c2         1 BCQ       0.168800
     17 C18         -2.5160     0.1740    -8.4580 c3         1 BCQ      -0.102100
     18 C17         -2.9090    -2.9320    -4.9160 c3         1 BCQ      -0.048900
     19 N14         -1.8610    -2.9050    -7.2490 nu         1 BCQ      -0.619500
     20 O15         -1.3810    -1.9640    -8.1920 os         1 BCQ      -0.149100
     21 O05         -0.5070    -0.3000    -3.6530 o          1 BCQ      -0.617800
     22 O06         -0.3310     1.4550    -5.3620 o          1 BCQ      -0.617800
     23 N2          -1.8380     4.8130    -1.9550 ns         1 BCQ      -0.588900
     24 CA2         -2.4660     5.7690    -1.0390 c3         1 BCQ       0.124700
     25 CB2         -1.3810     6.5550    -0.3000 c3         1 BCQ      -0.093400
     26 CG2          0.4890     6.3800     1.3190 ca         1 BCQ      -0.082300
     27 CD1          0.2170     6.9390     2.5550 ca         1 BCQ      -0.126500
     28 CD2          1.7410     6.5260     0.7550 ca         1 BCQ      -0.126500
     29 CE1          1.1970     7.6500     3.2220 ca         1 BCQ      -0.126000
     30 CE2          2.7200     7.2400     1.4210 ca         1 BCQ      -0.126000
     31 CZ           2.4490     7.7990     2.6540 ca         1 BCQ      -0.132000
     32 CB8         -0.5800     5.6050     0.5920 c3         1 BCQ      -0.033100
     33 CT          -3.3450     6.7370    -1.8340 c3         1 BCQ      -0.076400
     34 C4A         -6.8050     6.0680    -4.0660 ca         1 BCQ      -0.298500
     35 C1A         -8.7820     4.4270    -5.0890 ca         1 BCQ      -0.074000
     36 C2A         -8.9540     5.0330    -3.8590 ca         1 BCQ      -0.151000
     37 C3A         -7.9660     5.8530    -3.3480 ca         1 BCQ      -0.029500
     38 C5A         -6.6350     5.4660    -5.2990 ca         1 BCQ      -0.029500
     39 C6A         -7.6210     4.6430    -5.8090 ca         1 BCQ      -0.151000
     40 S1          -5.5460     7.1130    -3.4150 sy         1 BCQ       1.191300
     41 O1A         -6.2710     7.9850    -2.5590 o          1 BCQ      -0.615800
     42 O2          -4.8860     7.5790    -4.5840 o          1 BCQ      -0.615800
     43 H21          1.8370     0.8880    -0.5030 h1         1 BCQ       0.060700
     44 H22          1.8370    -0.8880    -0.5030 h1         1 BCQ       0.060700
     45 H31          1.6380     0.9190     1.9370 h1         1 BCQ       0.056200
     46 H32          3.0310    -0.0760     1.4800 h1         1 BCQ       0.056200
     47 H41         -1.7270    -0.6910     0.9780 h1         1 BCQ       0.060700
     48 H42         -0.5790    -1.9570     0.4990 h1         1 BCQ       0.060700
     49 H51         -0.4530    -1.6270     2.9200 h1         1 BCQ       0.056200
     50 H52         -0.1810     0.1090     2.6930 h1         1 BCQ       0.056200
     51 HN           0.9250     1.5100    -1.8240 hn         1 BCQ       0.327500
     52 HA          -0.1250     3.1480    -3.1090 h1         1 BCQ       0.075700
     53 H031        -2.5620     1.3970    -2.6150 h1         1 BCQ       0.119700
     54 H032        -2.4360     2.6620    -3.8460 h1         1 BCQ       0.119700
     55 H091        -3.1160     0.9040    -5.7200 h1         1 BCQ       0.095200
     56 H092        -3.2430    -0.3590    -4.4890 h1         1 BCQ       0.095200
     57 H16         -0.6190    -0.1710    -7.4770 h1         1 BCQ       0.079700
     58 H181        -3.5310    -0.1860    -8.3410 hc         1 BCQ       0.044033
     59 H182        -2.2240     0.0970    -9.4980 hc         1 BCQ       0.044033
     60 H183        -2.4620     1.2090    -8.1440 hc         1 BCQ       0.044033
     61 H171        -2.2510    -2.7900    -4.0680 hc         1 BCQ       0.060367
     62 H172        -3.8810    -2.5090    -4.6940 hc         1 BCQ       0.060367
     63 H173        -3.0150    -3.9920    -5.1170 hc         1 BCQ       0.060367
     64 HN14        -1.8620    -3.8970    -7.3760 hn         1 BCQ       0.495800
     65 HN2         -1.6660     5.0720    -2.9060 hn         1 BCQ       0.311500
     66 HA2         -3.0760     5.2340    -0.3210 h1         1 BCQ       0.087700
     67 HB21        -0.7180     7.0190    -1.0200 hc         1 BCQ       0.050200
     68 HB22        -1.8430     7.3200     0.3120 hc         1 BCQ       0.050200
     69 HD1         -0.7650     6.8230     2.9980 ha         1 BCQ       0.128500
     70 HD2          1.9540     6.0870    -0.2120 ha         1 BCQ       0.128500
     71 HE1          0.9850     8.0880     4.1890 ha         1 BCQ       0.128000
     72 HE2          3.7020     7.3560     0.9770 ha         1 BCQ       0.128000
     73 HZ           3.2170     8.3570     3.1770 ha         1 BCQ       0.128000
     74 HB81        -1.2430     5.1400     1.3120 hc         1 BCQ       0.063200
     75 HB82        -0.1180     4.8390    -0.0200 hc         1 BCQ       0.063200
     76 H7A1        -5.0940     5.4960    -1.6950 h1         1 BCQ       0.103700
     77 H7A2        -4.1090     5.2070    -3.1360 h1         1 BCQ       0.103700
     78 HT1         -3.7390     7.4960    -1.1700 hc         1 BCQ       0.063700
     79 HT2         -2.7540     7.2070    -2.6100 hc         1 BCQ       0.063700
     80 H1A         -9.5550     3.7820    -5.4890 ha         1 BCQ       0.134000
     81 H2A         -9.8640     4.8640    -3.2950 ha         1 BCQ       0.137000
     82 H3A         -8.1010     6.3260    -2.3820 ha         1 BCQ       0.150500
     83 H5A         -5.7250     5.6340    -5.8630 ha         1 BCQ       0.150500
     84 H6A         -7.4860     4.1700    -6.7740 ha         1 BCQ       0.137000
     85 O           -1.6190     3.3060    -0.3420 o          1 BCQ      -0.563100
     86 C7A         -4.5030     5.9660    -2.4710 c3         1 BCQ      -0.205600
     87 C09         -2.5930     0.0940    -5.2270 c3         1 BCQ      -0.086400
@<TRIPOS>BOND
     1     1     3 1
     2     1     5 1
     3     1     7 1
     4     2     4 1
     5     2     6 1
     6     3     4 1
     7     3    43 1
     8     3    44 1
     9     4    45 1
    10     4    46 1
    11     5     6 1
    12     5    47 1
    13     5    48 1
    14     6    49 1
    15     6    50 1
    16     7     8 2
    17     7     9 1
    18     9    10 1
    19     9    51 1
    20    10    11 1
    21    10    12 1
    22    10    52 1
    23    85    11 2
    24    11    23 1
    25    12    13 1
    26    12    53 1
    27    12    54 1
    28    87    13 1
    29    87    14 1
    30    87    55 1
    31    87    56 1
    32    13    21 2
    33    13    22 2
    34    14    15 1
    35    14    16 2
    36    15    17 1
    37    15    20 1
    38    15    57 1
    39    16    18 1
    40    16    19 1
    41    17    58 1
    42    17    59 1
    43    17    60 1
    44    18    61 1
    45    18    62 1
    46    18    63 1
    47    19    20 1
    48    19    64 1
    49    23    24 1
    50    23    65 1
    51    24    25 1
    52    24    33 1
    53    24    66 1
    54    25    32 1
    55    25    67 1
    56    25    68 1
    57    26    27 ar
    58    26    28 ar
    59    26    32 1
    60    27    29 ar
    61    27    69 1
    62    28    30 ar
    63    28    70 1
    64    29    31 ar
    65    29    71 1
    66    30    31 ar
    67    30    72 1
    68    31    73 1
    69    32    74 1
    70    32    75 1
    71    86    33 1
    72    86    40 1
    73    86    76 1
    74    86    77 1
    75    33    78 1
    76    33    79 1
    77    34    37 ar
    78    34    38 ar
    79    34    40 1
    80    35    36 ar
    81    35    39 ar
    82    35    80 1
    83    36    37 ar
    84    36    81 1
    85    37    82 1
    86    38    39 ar
    87    38    83 1
    88    39    84 1
    89    40    41 2
    90    40    42 2
@<TRIPOS>SUBSTRUCTURE
     1 BCQ         1 TEMP              0 ****  ****    0 ROOT
