@<TRIPOS>MOLECULE
BCQ
   87    90     1     0     0
SMALL
bcc


@<TRIPOS>ATOM
      1 N3           0.0000     0.0000     0.0000 n          1 BCQ      -0.165800
      2 O6           1.3820    -1.1130     2.1450 os         1 BCQ      -0.390600
      3 C2           1.4730     0.0000     0.0000 c3         1 BCQ       0.022500
      4 C3           1.9510     0.0000     1.4560 c3         1 BCQ       0.185400
      5 C4          -0.6790    -0.9530     0.8940 c3         1 BCQ       0.022500
      6 C5          -0.0190    -0.8760     2.2710 c3         1 BCQ       0.185400
      7 C1          -0.7010     0.8440    -0.7840 c          1 BCQ       0.636100
      8 O1          -1.9100     0.9020    -0.6860 o          1 BCQ      -0.704100
      9 N           -0.0590     1.6230    -1.6770 ns         1 BCQ      -0.217900
     10 CA          -0.8040     2.6210    -2.4480 c3         1 BCQ       0.020700
     11 C           -1.4500     3.6040    -1.5050 c          1 BCQ       0.553100
     12 C03         -1.8840     1.9230    -3.2760 c3         1 BCQ      -0.063600
     13 S04         -1.1080     0.7410    -4.4110 s6         1 BCQ       0.789000
     14 C12         -2.1940    -0.9410    -6.2480 c2         1 BCQ      -0.350400
     15 C16         -1.5720    -0.6700    -7.5990 c3         1 BCQ       0.260300
     16 C13         -2.3270    -2.2470    -6.1250 c2         1 BCQ       0.000800
     17 C18         -2.5160     0.1740    -8.4580 c3         1 BCQ      -0.017100
     18 C17         -2.9090    -2.9320    -4.9160 c3         1 BCQ       0.074100
     19 N14         -1.8610    -2.9050    -7.2490 nu         1 BCQ      -0.193500
     20 O15         -1.3810    -1.9640    -8.1920 os         1 BCQ      -0.251100
     21 O05         -0.5070    -0.3000    -3.6530 o          1 BCQ      -0.589300
     22 O06         -0.3310     1.4550    -5.3620 o          1 BCQ      -0.589300
     23 N2          -1.8380     4.8130    -1.9550 ns         1 BCQ      -0.203900
     24 CA2         -2.4660     5.7690    -1.0390 c3         1 BCQ       0.015700
     25 CB2         -1.3810     6.5550    -0.3000 c3         1 BCQ      -0.038400
     26 CG2          0.4890     6.3800     1.3190 ca         1 BCQ      -0.087300
     27 CD1          0.2170     6.9390     2.5550 ca         1 BCQ      -0.100000
     28 CD2          1.7410     6.5260     0.7550 ca         1 BCQ      -0.100000
     29 CE1          1.1970     7.6500     3.2220 ca         1 BCQ      -0.098000
     30 CE2          2.7200     7.2400     1.4210 ca         1 BCQ      -0.098000
     31 CZ           2.4490     7.7990     2.6540 ca         1 BCQ      -0.106000
     32 CB8         -0.5800     5.6050     0.5920 c3         1 BCQ       0.013900
     33 CT          -3.3450     6.7370    -1.8340 c3         1 BCQ      -0.009400
     34 C4A         -6.8050     6.0680    -4.0660 ca         1 BCQ      -0.162500
     35 C1A         -8.7820     4.4270    -5.0890 ca         1 BCQ      -0.047000
     36 C2A         -8.9540     5.0330    -3.8590 ca         1 BCQ      -0.133500
     37 C3A         -7.9660     5.8530    -3.3480 ca         1 BCQ       0.003500
     38 C5A         -6.6350     5.4660    -5.2990 ca         1 BCQ       0.003500
     39 C6A         -7.6210     4.6430    -5.8090 ca         1 BCQ      -0.133500
     40 S1          -5.5460     7.1130    -3.4150 sy         1 BCQ       0.875300
     41 O1A         -6.2710     7.9850    -2.5590 o          1 BCQ      -0.582300
     42 O2          -4.8860     7.5790    -4.5840 o          1 BCQ      -0.582300
     43 H21          1.8370     0.8880    -0.5030 h1         1 BCQ       0.033450
     44 H22          1.8370    -0.8880    -0.5030 h1         1 BCQ       0.033450
     45 H31          1.6380     0.9190     1.9370 h1         1 BCQ       0.015700
     46 H32          3.0310    -0.0760     1.4800 h1         1 BCQ       0.015700
     47 H41         -1.7270    -0.6910     0.9780 h1         1 BCQ       0.033450
     48 H42         -0.5790    -1.9570     0.4990 h1         1 BCQ       0.033450
     49 H51         -0.4530    -1.6270     2.9200 h1         1 BCQ       0.015700
     50 H52         -0.1810     0.1090     2.6930 h1         1 BCQ       0.015700
     51 HN           0.9250     1.5100    -1.8240 hn         1 BCQ       0.188500
     52 HA          -0.1250     3.1480    -3.1090 h1         1 BCQ       0.043700
     53 H031        -2.5620     1.3970    -2.6150 h1         1 BCQ       0.093200
     54 H032        -2.4360     2.6620    -3.8460 h1         1 BCQ       0.093200
     55 H091        -3.1160     0.9040    -5.7200 h1         1 BCQ       0.060700
     56 H092        -3.2430    -0.3590    -4.4890 h1         1 BCQ       0.060700
     57 H16         -0.6190    -0.1710    -7.4770 h1         1 BCQ       0.046700
     58 H181        -3.5310    -0.1860    -8.3410 hc         1 BCQ       0.010367
     59 H182        -2.2240     0.0970    -9.4980 hc         1 BCQ       0.010367
     60 H183        -2.4620     1.2090    -8.1440 hc         1 BCQ       0.010367
     61 H171        -2.2510    -2.7900    -4.0680 hc         1 BCQ       0.017033
     62 H172        -3.8810    -2.5090    -4.6940 hc         1 BCQ       0.017033
     63 H173        -3.0150    -3.9920    -5.1170 hc         1 BCQ       0.017033
     64 HN14        -1.8620    -3.8970    -7.3760 hn         1 BCQ       0.317800
     65 HN2         -1.6660     5.0720    -2.9060 hn         1 BCQ       0.176500
     66 HA2         -3.0760     5.2340    -0.3210 h1         1 BCQ       0.063700
     67 HB21        -0.7180     7.0190    -1.0200 hc         1 BCQ       0.022700
     68 HB22        -1.8430     7.3200     0.3120 hc         1 BCQ       0.022700
     69 HD1         -0.7650     6.8230     2.9980 ha         1 BCQ       0.103500
     70 HD2          1.9540     6.0870    -0.2120 ha         1 BCQ       0.103500
     71 HE1          0.9850     8.0880     4.1890 ha         1 BCQ       0.101500
     72 HE2          3.7020     7.3560     0.9770 ha         1 BCQ       0.101500
     73 HZ           3.2170     8.3570     3.1770 ha         1 BCQ       0.102000
     74 HB81        -1.2430     5.1400     1.3120 hc         1 BCQ       0.037200
     75 HB82        -0.1180     4.8390    -0.0200 hc         1 BCQ       0.037200
     76 H7A1        -5.0940     5.4960    -1.6950 h1         1 BCQ       0.068700
     77 H7A2        -4.1090     5.2070    -3.1360 h1         1 BCQ       0.068700
     78 HT1         -3.7390     7.4960    -1.1700 hc         1 BCQ       0.036200
     79 HT2         -2.7540     7.2070    -2.6100 hc         1 BCQ       0.036200
     80 H1A         -9.5550     3.7820    -5.4890 ha         1 BCQ       0.102000
     81 H2A         -9.8640     4.8640    -3.2950 ha         1 BCQ       0.108500
     82 H3A         -8.1010     6.3260    -2.3820 ha         1 BCQ       0.122000
     83 H5A         -5.7250     5.6340    -5.8630 ha         1 BCQ       0.122000
     84 H6A         -7.4860     4.1700    -6.7740 ha         1 BCQ       0.108500
     85 O           -1.6190     3.3060    -0.3420 o          1 BCQ      -0.601100
     86 C7A         -4.5030     5.9660    -2.4710 c3         1 BCQ      -0.003600
     87 C09         -2.5930     0.0940    -5.2270 c3         1 BCQ       0.132600
@<TRIPOS>BOND
     1     1     3 1   
     2     1     5 1   
     3     1     7 1   
     4     2     4 1   
     5     2     6 1   
     6     3     4 1   
     7     3    43 1   
     8     3    44 1   
     9     4    45 1   
    10     4    46 1   
    11     5     6 1   
    12     5    47 1   
    13     5    48 1   
    14     6    49 1   
    15     6    50 1   
    16     7     8 2   
    17     7     9 1   
    18     9    10 1   
    19     9    51 1   
    20    10    11 1   
    21    10    12 1   
    22    10    52 1   
    23    11    23 1   
    24    11    85 2   
    25    12    13 1   
    26    12    53 1   
    27    12    54 1   
    28    13    21 2   
    29    13    22 2   
    30    13    87 1   
    31    14    15 1   
    32    14    16 2   
    33    14    87 1   
    34    15    17 1   
    35    15    20 1   
    36    15    57 1   
    37    16    18 1   
    38    16    19 1   
    39    17    58 1   
    40    17    59 1   
    41    17    60 1   
    42    18    61 1   
    43    18    62 1   
    44    18    63 1   
    45    19    20 1   
    46    19    64 1   
    47    23    24 1   
    48    23    65 1   
    49    24    25 1   
    50    24    33 1   
    51    24    66 1   
    52    25    32 1   
    53    25    67 1   
    54    25    68 1   
    55    26    27 ar  
    56    26    28 ar  
    57    26    32 1   
    58    27    29 ar  
    59    27    69 1   
    60    28    30 ar  
    61    28    70 1   
    62    29    31 ar  
    63    29    71 1   
    64    30    31 ar  
    65    30    72 1   
    66    31    73 1   
    67    32    74 1   
    68    32    75 1   
    69    33    78 1   
    70    33    79 1   
    71    33    86 1   
    72    34    37 ar  
    73    34    38 ar  
    74    34    40 1   
    75    35    36 ar  
    76    35    39 ar  
    77    35    80 1   
    78    36    37 ar  
    79    36    81 1   
    80    37    82 1   
    81    38    39 ar  
    82    38    83 1   
    83    39    84 1   
    84    40    41 2   
    85    40    42 2   
    86    40    86 1   
    87    55    87 1   
    88    56    87 1   
    89    76    86 1   
    90    77    86 1   
@<TRIPOS>SUBSTRUCTURE
     1 BCQ         1 TEMP              0 ****  ****    0 ROOT
