@<TRIPOS>MOLECULE
BCR
   96    98     1     0     0
SMALL
bcc


@<TRIPOS>ATOM
      1 C1         -2.6320    0.4700    1.7580 c3        1 BCR     -0.004800
      2 C2         -1.3280    0.2350    2.5270 c3        1 BCR     -0.070400
      3 C3         -0.6140    1.5250    2.8560 c3        1 BCR     -0.076400
      4 C4         -1.4890    2.4010    3.7260 c3        1 BCR     -0.043200
      5 C5         -2.8850    2.5030    3.2150 c2        1 BCR     -0.099400
      6 C6         -3.4050    1.6420    2.3160 ce        1 BCR     -0.085200
      7 C7         -4.7910    1.7320    1.8590 ce        1 BCR     -0.110000
      8 C8         -5.3900    2.6790    1.1280 cf        1 BCR     -0.128000
      9 C9         -4.8320    3.9080    0.5730 cf        1 BCR     -0.004200
     10 C10        -5.5530    5.0190    0.5380 cu        1 BCR     -0.189400
     11 C11        -5.6320    6.4370    0.1940 cx        1 BCR     -0.077200
     12 C33        -3.6540    3.6260    3.8070 c3        1 BCR     -0.062900
     13 C31        -3.4630   -0.8080    1.8590 c3        1 BCR     -0.085600
     14 C32        -2.3160    0.7240    0.2870 c3        1 BCR     -0.085600
     15 C34        -3.4570    3.8760    0.0120 c3        1 BCR     -0.062900
     16 C12        -6.7960    5.7300    0.8800 cx        1 BCR     -0.044300
     17 C13        -8.0530    5.5060    0.1470 c2        1 BCR     -0.071400
     18 C14        -9.2170    6.0950    0.4920 ce        1 BCR     -0.142000
     19 C15        -9.3920    7.0270    1.5800 ce        1 BCR     -0.124000
     20 C16       -10.5700    7.4350    2.0850 cf        1 BCR     -0.124000
     21 C17       -11.8760    6.9970    1.6540 cf        1 BCR     -0.135000
     22 C18       -13.0350    7.4700    2.1560 ce        1 BCR     -0.072200
     23 C19       -13.0860    8.4610    3.2270 ce        1 BCR     -0.134000
     24 C20       -13.5360    9.7210    3.1200 cf        1 BCR     -0.118000
     25 C21       -14.0100   10.3320    1.8990 cf        1 BCR     -0.147000
     26 C22       -14.5280   11.5750    1.8200 ce        1 BCR     -0.057200
     27 C23       -14.6190   12.4560    2.9790 ce        1 BCR     -0.138000
     28 C24       -15.7060   13.0330    3.5050 cf        1 BCR     -0.107000
     29 C25       -17.1000   12.9440    3.0750 cf        1 BCR     -0.086200
     30 C26       -17.8030   11.7940    3.1180 c2        1 BCR     -0.094400
     31 C27       -19.2420   11.7020    2.7400 c3        1 BCR     -0.043200
     32 C28       -19.7250   12.9020    1.9580 c3        1 BCR     -0.075400
     33 C29       -19.2410   14.1800    2.6010 c3        1 BCR     -0.070400
     34 C30       -17.7120   14.2620    2.6580 c3        1 BCR     -0.004800
     35 C35        -7.9880    4.5850   -1.0150 c3        1 BCR     -0.059900
     36 C36       -14.3460    6.9590    1.6830 c3        1 BCR     -0.059900
     37 C37       -14.9940   12.1270    0.5240 c3        1 BCR     -0.062900
     38 C38       -17.2400   10.5050    3.5950 c3        1 BCR     -0.064900
     39 C39       -17.3490   15.3580    3.6590 c3        1 BCR     -0.086100
     40 C40       -17.1760   14.6670    1.2880 c3        1 BCR     -0.086100
     41 HC21       -0.6580   -0.4240    1.9150 hc        1 BCR      0.042200
     42 HC22       -1.5580   -0.3100    3.4800 hc        1 BCR      0.042200
     43 HC31        0.3460    1.3020    3.3910 hc        1 BCR      0.041200
     44 HC32       -0.3530    2.0690    1.9110 hc        1 BCR      0.041200
     45 HC41       -1.0420    3.4290    3.7940 hc        1 BCR      0.048200
     46 HC42       -1.5220    1.9850    4.7700 hc        1 BCR      0.048200
     47 HC7        -5.4060    0.8690    2.1880 ha        1 BCR      0.125000
     48 HC8        -6.4700    2.5540    0.9090 ha        1 BCR      0.124000
     49 H10C       -5.7370    6.7300   -0.8680 hc        1 BCR      0.076700
     50 H11C       -5.0430    7.1730    0.7710 hc        1 BCR      0.076700
     51 H331       -3.5110    3.6460    4.9160 hc        1 BCR      0.044700
     52 H332       -4.7470    3.5410    3.5890 hc        1 BCR      0.044700
     53 H333       -3.2880    4.5970    3.3890 hc        1 BCR      0.044700
     54 H311       -3.8610   -0.9350    2.8940 hc        1 BCR      0.036367
     55 H312       -2.8280   -1.6920    1.6080 hc        1 BCR      0.036367
     56 H313       -4.3200   -0.7780    1.1440 hc        1 BCR      0.036367
     57 H321       -1.8210   -0.1720   -0.1590 hc        1 BCR      0.036367
     58 H322       -3.2580    0.9320   -0.2770 hc        1 BCR      0.036367
     59 H323       -1.6360    1.6030    0.1780 hc        1 BCR      0.036367
     60 H341       -3.1510    4.8810   -0.3670 hc        1 BCR      0.048367
     61 H342       -2.7310    3.5500    0.8000 hc        1 BCR      0.048367
     62 H343       -3.4070    3.1450   -0.8340 hc        1 BCR      0.048367
     63 H12C       -6.9590    5.9520    1.9580 hc        1 BCR      0.088700
     64 H14C      -10.1210    5.8670   -0.1010 ha        1 BCR      0.123000
     65 H15C       -8.4640    7.4420    2.0150 ha        1 BCR      0.122000
     66 H16C      -10.5660    8.1730    2.9090 ha        1 BCR      0.124000
     67 H17C      -11.9070    6.2250    0.8650 ha        1 BCR      0.124000
     68 H19C      -12.7160    8.0940    4.2020 ha        1 BCR      0.128000
     69 H20C      -13.5460   10.3650    4.0190 ha        1 BCR      0.123000
     70 H21C      -13.9260    9.7160    0.9860 ha        1 BCR      0.130000
     71 H23C      -13.6390   12.6460    3.4610 ha        1 BCR      0.124000
     72 H24C      -15.5690   13.6770    4.3970 ha        1 BCR      0.124000
     73 H271      -19.8460   11.5970    3.6830 hc        1 BCR      0.047700
     74 H272      -19.4100   10.7700    2.1360 hc        1 BCR      0.047700
     75 H281      -19.3540   12.8420    0.9010 hc        1 BCR      0.041700
     76 H282      -20.8460   12.9000    1.9190 hc        1 BCR      0.041700
     77 H291      -19.6320   15.0640    2.0320 hc        1 BCR      0.041700
     78 H292      -19.6490   14.2430    3.6450 hc        1 BCR      0.041700
     79 H351       -7.6700    3.5660   -0.6780 hc        1 BCR      0.044033
     80 H352       -8.9760    4.4960   -1.5300 hc        1 BCR      0.044033
     81 H353       -7.2340    4.9570   -1.7530 hc        1 BCR      0.044033
     82 H361      -14.2330    6.3130    0.7780 hc        1 BCR      0.045033
     83 H362      -15.0280    7.8100    1.4320 hc        1 BCR      0.045033
     84 H363      -14.8290    6.3530    2.4910 hc        1 BCR      0.045033
     85 H371      -16.0930   12.3380    0.5790 hc        1 BCR      0.047033
     86 H372      -14.4650   13.0880    0.3020 hc        1 BCR      0.047033
     87 H373      -14.8070   11.4170   -0.3170 hc        1 BCR      0.047033
     88 H381      -17.7580   10.1950    4.5370 hc        1 BCR      0.045033
     89 H382      -16.1420   10.5730    3.7970 hc        1 BCR      0.045033
     90 H383      -17.4020    9.7060    2.8290 hc        1 BCR      0.045033
     91 H391      -17.9490   16.2760    3.4480 hc        1 BCR      0.036200
     92 H392      -16.2670   15.6210    3.5790 hc        1 BCR      0.036200
     93 H393      -17.5640   15.0230    4.7010 hc        1 BCR      0.036200
     94 H401      -17.5020   15.7070    1.0430 hc        1 BCR      0.036200
     95 H402      -17.5570   13.9790    0.4970 hc        1 BCR      0.036200
     96 H403      -16.0590   14.6300    1.2860 hc        1 BCR      0.036200
@<TRIPOS>BOND
     1    1    2 1   
     2    1    6 1   
     3    1   13 1   
     4    1   14 1   
     5    2    3 1   
     6    2   41 1   
     7    2   42 1   
     8    3    4 1   
     9    3   43 1   
    10    3   44 1   
    11    4    5 1   
    12    4   45 1   
    13    4   46 1   
    14    5    6 2   
    15    5   12 1   
    16    6    7 1   
    17    7    8 2   
    18    7   47 1   
    19    8    9 1   
    20    8   48 1   
    21    9   10 2   
    22    9   15 1   
    23   10   11 1   
    24   10   16 1   
    25   11   16 1   
    26   11   49 1   
    27   11   50 1   
    28   12   51 1   
    29   12   52 1   
    30   12   53 1   
    31   13   54 1   
    32   13   55 1   
    33   13   56 1   
    34   14   57 1   
    35   14   58 1   
    36   14   59 1   
    37   15   60 1   
    38   15   61 1   
    39   15   62 1   
    40   16   17 1   
    41   16   63 1   
    42   17   18 2   
    43   17   35 1   
    44   18   19 1   
    45   18   64 1   
    46   19   20 2   
    47   19   65 1   
    48   20   21 1   
    49   20   66 1   
    50   21   22 2   
    51   21   67 1   
    52   22   23 1   
    53   22   36 1   
    54   23   24 2   
    55   23   68 1   
    56   24   25 1   
    57   24   69 1   
    58   25   26 2   
    59   25   70 1   
    60   26   27 1   
    61   26   37 1   
    62   27   28 2   
    63   27   71 1   
    64   28   29 1   
    65   28   72 1   
    66   29   30 2   
    67   29   34 1   
    68   30   31 1   
    69   30   38 1   
    70   31   32 1   
    71   31   73 1   
    72   31   74 1   
    73   32   33 1   
    74   32   75 1   
    75   32   76 1   
    76   33   34 1   
    77   33   77 1   
    78   33   78 1   
    79   34   39 1   
    80   34   40 1   
    81   35   79 1   
    82   35   80 1   
    83   35   81 1   
    84   36   82 1   
    85   36   83 1   
    86   36   84 1   
    87   37   85 1   
    88   37   86 1   
    89   37   87 1   
    90   38   88 1   
    91   38   89 1   
    92   38   90 1   
    93   39   91 1   
    94   39   92 1   
    95   39   93 1   
    96   40   94 1   
    97   40   95 1   
    98   40   96 1   
@<TRIPOS>SUBSTRUCTURE
     1 BCR         1 TEMP              0 ****  ****    0 ROOT
