@<TRIPOS>MOLECULE
molecule
   96    97     1     0     0
SMALL
bcc


@<TRIPOS>ATOM
      1 C1           0.0000     0.0000     0.0000 c3         1 BCR      -0.001800
      2 C2           1.6110     0.0000     0.0000 c3         1 BCR      -0.072400
      3 C3           2.2460     0.0000     1.3310 c3         1 BCR      -0.075900
      4 C4           1.5930     1.0640     2.2300 c3         1 BCR      -0.050700
      5 C5           0.0930     1.0250     2.3170 c2         1 BCR      -0.109400
      6 C6          -0.6980     0.5470     1.3060 ce         1 BCR      -0.064700
      7 C7          -2.1860     0.5920     1.4510 ce         1 BCR      -0.099000
      8 C8          -3.0850     1.6030     1.5640 cf         1 BCR      -0.135000
      9 C9          -4.5450     1.5800     1.6210 cf         1 BCR      -0.050700
     10 C10         -5.1660     2.7760     1.8240 ce         1 BCR      -0.137500
     11 C11         -6.5350     3.0400     2.1270 ce         1 BCR      -0.115000
     12 C33         -0.3010     1.6080     3.6750 c3         1 BCR      -0.050400
     13 C31         -0.4450    -1.4430    -0.2800 c3         1 BCR      -0.083100
     14 C32         -0.3100     0.8340    -1.2390 c3         1 BCR      -0.083100
     15 C34         -5.3110     0.2920     1.5340 c3         1 BCR      -0.053400
     16 C12         -7.0880     4.2650     2.3130 cf         1 BCR      -0.123000
     17 C13         -8.4690     4.5900     2.5820 cf         1 BCR      -0.061700
     18 C14         -8.7770     5.9220     2.7220 ce         1 BCR      -0.132500
     19 C15        -10.0470     6.5440     2.8940 ce         1 BCR      -0.117000
     20 C16        -10.2450     7.8820     3.0170 cf         1 BCR      -0.117000
     21 C17        -11.5400     8.4880     3.0270 cf         1 BCR      -0.132500
     22 C18        -11.8870     9.8000     3.1340 ce         1 BCR      -0.061700
     23 C19        -13.2600    10.1300     2.9710 ce         1 BCR      -0.123000
     24 C20        -13.8490    11.3550     3.0290 cf         1 BCR      -0.115000
     25 C21        -15.2010    11.6330     2.7130 cf         1 BCR      -0.137500
     26 C22        -15.8900    12.8150     2.7390 ce         1 BCR      -0.050700
     27 C23        -17.2620    12.7520     2.3510 ce         1 BCR      -0.135000
     28 C24        -18.2260    13.7290     2.2790 cf         1 BCR      -0.099000
     29 C25        -19.5850    13.8320     1.7760 cf         1 BCR      -0.064700
     30 C26        -20.4770    12.7660     1.9000 c2         1 BCR      -0.109400
     31 C27        -21.8900    12.8300     1.3980 c3         1 BCR      -0.050700
     32 C28        -22.5070    14.2310     1.3530 c3         1 BCR      -0.075900
     33 C29        -21.6280    15.1350     0.5750 c3         1 BCR      -0.072400
     34 C30        -20.1020    15.1660     1.0630 c3         1 BCR      -0.001800
     35 C35         -9.5210     3.5060     2.7010 c3         1 BCR      -0.053900
     36 C36        -10.8660    10.8600     3.3950 c3         1 BCR      -0.053900
     37 C37        -15.2410    14.1260     3.1350 c3         1 BCR      -0.053400
     38 C38        -20.2990    11.3640     2.4970 c3         1 BCR      -0.050400
     39 C39        -19.9840    16.3900     1.9850 c3         1 BCR      -0.083100
     40 C40        -19.3500    15.4950    -0.2410 c3         1 BCR      -0.083100
     41 HC21         1.9480     0.8800    -0.5350 hc         1 BCR       0.040200
     42 HC22         1.9480    -0.8800    -0.5340 hc         1 BCR       0.040200
     43 HC31         3.3010     0.2210     1.2240 hc         1 BCR       0.042700
     44 HC32         2.1230    -0.9760     1.7860 hc         1 BCR       0.042700
     45 HC41         1.8820     2.0400     1.8580 hc         1 BCR       0.045200
     46 HC42         1.9910     0.9470     3.2310 hc         1 BCR       0.045200
     47 HC7         -2.6250    -0.3970     1.4000 ha         1 BCR       0.105000
     48 HC8         -2.6690     2.6030     1.5550 ha         1 BCR       0.113000
     49 H10C        -4.5190     3.6410     1.9110 ha         1 BCR       0.113500
     50 H11C        -7.1900     2.1790     2.1830 ha         1 BCR       0.115000
     51 H331        -0.5870     2.6460     3.5530 hc         1 BCR       0.043533
     52 H332         0.5400     1.5420     4.3540 hc         1 BCR       0.043533
     53 H333        -1.1370     1.0490     4.0790 hc         1 BCR       0.043533
     54 H311         0.1610    -1.8600    -1.0750 hc         1 BCR       0.036117
     55 H312        -0.3230    -2.0380     0.6170 hc         1 BCR       0.036117
     56 H313        -1.4860    -1.4480    -0.5780 hc         1 BCR       0.036117
     57 H321        -0.0020     1.8590    -1.0710 hc         1 BCR       0.036117
     58 H322         0.2260     0.4300    -2.0900 hc         1 BCR       0.036117
     59 H323        -1.3750     0.8050    -1.4370 hc         1 BCR       0.036117
     60 H341        -5.4840    -0.0930     2.5320 hc         1 BCR       0.044867
     61 H342        -4.7400    -0.4290     0.9630 hc         1 BCR       0.044867
     62 H343        -6.2610     0.4700     1.0450 hc         1 BCR       0.044867
     63 H12C        -6.4250     5.1170     2.2250 ha         1 BCR       0.115500
     64 H14C        -7.9510     6.6170     2.6250 ha         1 BCR       0.113500
     65 H15C       -10.9200     5.9080     2.8040 ha         1 BCR       0.119000
     66 H16C        -9.3820     8.5360     2.9890 ha         1 BCR       0.119000
     67 H17C       -12.3500     7.7960     2.8320 ha         1 BCR       0.113500
     68 H19C       -13.8900     9.3050     2.6620 ha         1 BCR       0.115500
     69 H20C       -13.2150    12.2100     3.2310 ha         1 BCR       0.115000
     70 H21C       -15.7660    10.7630     2.4010 ha         1 BCR       0.113500
     71 H23C       -17.5460    11.7880     1.9480 ha         1 BCR       0.113000
     72 H24C       -17.8700    14.7050     2.5840 ha         1 BCR       0.105000
     73 H271       -22.5050    12.2100     2.0390 hc         1 BCR       0.045200
     74 H272       -21.9120    12.4190     0.3950 hc         1 BCR       0.045200
     75 H281       -22.6110    14.6100     2.3620 hc         1 BCR       0.042700
     76 H282       -23.4800    14.1800     0.8790 hc         1 BCR       0.042700
     77 H291       -22.0280    16.1400     0.6430 hc         1 BCR       0.040200
     78 H292       -21.6490    14.8220    -0.4610 hc         1 BCR       0.040200
     79 H351        -9.1260     2.6820     3.2830 hc         1 BCR       0.045033
     80 H352       -10.3980     3.9080     3.1930 hc         1 BCR       0.045033
     81 H353        -9.7900     3.1540     1.7130 hc         1 BCR       0.045033
     82 H361        -9.9770    10.4080     3.8180 hc         1 BCR       0.045033
     83 H362       -10.6120    11.3530     2.4650 hc         1 BCR       0.045033
     84 H363       -11.2690    11.5860     4.0910 hc         1 BCR       0.045033
     85 H371       -15.4630    14.3390     4.1740 hc         1 BCR       0.044867
     86 H372       -15.6280    14.9230     2.5120 hc         1 BCR       0.044867
     87 H373       -14.1680    14.0520     3.0020 hc         1 BCR       0.044867
     88 H381       -21.0110    11.2220     3.3020 hc         1 BCR       0.043533
     89 H382       -19.2920    11.2610     2.8830 hc         1 BCR       0.043533
     90 H383       -20.4700    10.6200     1.7290 hc         1 BCR       0.043533
     91 H391       -20.5240    17.2220     1.5500 hc         1 BCR       0.036117
     92 H392       -20.4040    16.1530     2.9540 hc         1 BCR       0.036117
     93 H393       -18.9400    16.6560     2.0990 hc         1 BCR       0.036117
     94 H401       -19.8210    16.3420    -0.7250 hc         1 BCR       0.036117
     95 H402       -18.3190    15.7360    -0.0130 hc         1 BCR       0.036117
     96 H403       -19.3830    14.6370    -0.9030 hc         1 BCR       0.036117
@<TRIPOS>BOND
     1     1     2 1
     2     1     6 1
     3     1    13 1
     4     1    14 1
     5     2     3 1
     6     2    41 1
     7     2    42 1
     8     3     4 1
     9     3    43 1
    10     3    44 1
    11     4     5 1
    12     4    45 1
    13     4    46 1
    14     5     6 2
    15     5    12 1
    16     6     7 1
    17     7     8 2
    18     7    47 1
    19     8     9 1
    20     8    48 1
    21     9    10 2
    22     9    15 1
    23    10    11 1
    24    10    49 1
    25    11    16 2
    26    11    50 1
    27    12    51 1
    28    12    52 1
    29    12    53 1
    30    13    54 1
    31    13    55 1
    32    13    56 1
    33    14    57 1
    34    14    58 1
    35    14    59 1
    36    15    60 1
    37    15    61 1
    38    15    62 1
    39    16    17 1
    40    16    63 1
    41    17    18 2
    42    17    35 1
    43    18    19 1
    44    18    64 1
    45    19    20 2
    46    19    65 1
    47    20    21 1
    48    20    66 1
    49    21    22 2
    50    21    67 1
    51    22    23 1
    52    22    36 1
    53    23    24 2
    54    23    68 1
    55    24    25 1
    56    24    69 1
    57    25    26 2
    58    25    70 1
    59    26    27 1
    60    26    37 1
    61    27    28 2
    62    27    71 1
    63    28    29 1
    64    28    72 1
    65    29    30 2
    66    29    34 1
    67    30    31 1
    68    30    38 1
    69    31    32 1
    70    31    73 1
    71    31    74 1
    72    32    33 1
    73    32    75 1
    74    32    76 1
    75    33    34 1
    76    33    77 1
    77    33    78 1
    78    34    39 1
    79    34    40 1
    80    35    79 1
    81    35    80 1
    82    35    81 1
    83    36    82 1
    84    36    83 1
    85    36    84 1
    86    37    85 1
    87    37    86 1
    88    37    87 1
    89    38    88 1
    90    38    89 1
    91    38    90 1
    92    39    91 1
    93    39    92 1
    94    39    93 1
    95    40    94 1
    96    40    95 1
    97    40    96 1
@<TRIPOS>SUBSTRUCTURE
     1 BCR         1 TEMP              0 ****  ****    0 ROOT
