@<TRIPOS>MOLECULE
BCT
    5     4     1     0     0
SMALL
bcc


@<TRIPOS>ATOM
      1 C           0.0360   -0.0000    0.0640 c         1 BCT      0.494100
      2 O1          1.2860   -0.0010   -0.0840 o         1 BCT     -0.581500
      3 O2         -0.6950    0.0000    1.0800 o         1 BCT     -0.581500
      4 O3         -0.6800    0.0000   -1.1390 oh        1 BCT     -0.712100
      5 HO3        -0.0400    0.0000   -1.8570 ho        1 BCT      0.381000
@<TRIPOS>BOND
     1    1    2 1   
     2    1    3 1   
     3    1    4 1   
     4    4    5 1   
@<TRIPOS>SUBSTRUCTURE
     1 BCT         1 TEMP              0 ****  ****    0 ROOT
