@<TRIPOS>MOLECULE
molecule
    5     4     1     0     0
SMALL
bcc


@<TRIPOS>ATOM
      1 C            0.0000     0.0000     0.0000 c          1 BCT       0.466100
      2 O1           1.2800     0.0000     0.0000 o          1 BCT      -0.600000
      3 O2          -0.6390     0.0000     1.1090 o          1 BCT      -0.600000
      4 O3          -0.6730     0.0000    -1.1640 oh         1 BCT      -0.658100
      5 HO3         -0.0610     0.0000    -1.8810 ho         1 BCT       0.392000
@<TRIPOS>BOND
     1     1     2 1
     2     1     3 1
     3     1     4 1
     4     4     5 1
@<TRIPOS>SUBSTRUCTURE
     1 BCT         1 TEMP              0 ****  ****    0 ROOT
