@<TRIPOS>MOLECULE
molecule
   24    25     1     0     0
SMALL
bcc


@<TRIPOS>ATOM
      1 O12          0.0000     0.0000     0.0000 oh         1 BCU      -0.611800
      2 C11          1.4290     0.0000     0.0000 c3         1 BCU       0.145400
      3 C2           1.9390     0.0000     1.4430 c3         1 BCU      -0.114700
      4 C3           1.5480     1.3150     2.1290 c3         1 BCU       0.150400
      5 O4           1.9450     1.2430     3.4990 os         1 BCU      -0.329900
      6 C5           3.2140     0.8430     3.7720 ca         1 BCU       0.149100
      7 C10          3.7370     1.1060     5.0350 ca         1 BCU      -0.155000
      8 C9           5.0200     0.7120     5.3510 ca         1 BCU      -0.099000
      9 C8           5.7910     0.0520     4.4110 ca         1 BCU      -0.163000
     10 C7           5.2760    -0.2100     3.1580 ca         1 BCU      -0.094000
     11 C6           3.9890     0.1850     2.8340 ca         1 BCU      -0.162300
     12 C1           3.4650    -0.1110     1.4500 c3         1 BCU      -0.025100
     13 H1          -0.3140    -0.2120    -0.8630 ho         1 BCU       0.405000
     14 H2           1.7900     0.8850    -0.5110 h1         1 BCU       0.024700
     15 H3           1.7900    -0.8850    -0.5110 h1         1 BCU       0.024700
     16 H4           1.5110    -0.8340     1.9870 hc         1 BCU       0.082700
     17 H5           0.4720     1.4320     2.0800 h1         1 BCU       0.066200
     18 H6           2.0740     2.1320     1.6520 h1         1 BCU       0.066200
     19 H7           3.1340     1.6230     5.7720 ha         1 BCU       0.143000
     20 H8           5.4230     0.9180     6.3350 ha         1 BCU       0.132000
     21 H9           6.7990    -0.2580     4.6590 ha         1 BCU       0.130000
     22 H10          5.8820    -0.7270     2.4240 ha         1 BCU       0.128000
     23 H11          3.7530    -1.1160     1.1650 hc         1 BCU       0.052700
     24 H12          3.8810     0.6020     0.7490 hc         1 BCU       0.052700
@<TRIPOS>BOND
     1     8     7 ar
     2     8     9 ar
     3     7     6 ar
     4     9    10 ar
     5     6     5 1
     6     6    11 ar
     7     5     4 1
     8    10    11 ar
     9    11    12 1
    10     4     3 1
    11    12     3 1
    12     3     2 1
    13     2     1 1
    14     1    13 1
    15     2    14 1
    16     2    15 1
    17     3    16 1
    18     4    17 1
    19     4    18 1
    20     7    19 1
    21     8    20 1
    22     9    21 1
    23    10    22 1
    24    12    23 1
    25    12    24 1
@<TRIPOS>SUBSTRUCTURE
     1 BCU         1 TEMP              0 ****  ****    0 ROOT
