@<TRIPOS>MOLECULE
BCU
   24    25     1     0     0
SMALL
bcc


@<TRIPOS>ATOM
      1 O12         0.0260   -0.0680    0.0320 oh        1 BCU     -0.600800
      2 C11         1.4420    0.0160   -0.0100 c3        1 BCU      0.136400
      3 C2          1.9410    0.0020    1.4300 c3        1 BCU     -0.101700
      4 C3          1.5320    1.2790    2.1480 c3        1 BCU      0.134400
      5 O4          1.9330    1.2790    3.5210 os        1 BCU     -0.323900
      6 C5          3.2300    0.8630    3.7540 ca        1 BCU      0.127100
      7 C10         3.7400    1.1510    5.0320 ca        1 BCU     -0.153000
      8 C9          5.0270    0.7350    5.3550 ca        1 BCU     -0.103000
      9 C8          5.8030    0.0440    4.4220 ca        1 BCU     -0.161000
     10 C7          5.2900   -0.2400    3.1590 ca        1 BCU     -0.098000
     11 C6          3.9970    0.1620    2.8070 ca        1 BCU     -0.146300
     12 C1          3.4550   -0.1440    1.4580 c3        1 BCU     -0.027100
     13 H1         -0.2740   -0.1040   -0.8840 ho        1 BCU      0.403000
     14 H2          1.8640   -0.8620   -0.5690 h1        1 BCU      0.025700
     15 H3          1.7540    0.9630   -0.5280 h1        1 BCU      0.025700
     16 H4          1.4720   -0.8710    1.9650 hc        1 BCU      0.084700
     17 H5          0.4140    1.3710    2.1970 h1        1 BCU      0.063700
     18 H6          1.9760    2.1780    1.6450 h1        1 BCU      0.063700
     19 H7          3.1150    1.6940    5.7530 ha        1 BCU      0.149000
     20 H8          5.4340    0.9540    6.3530 ha        1 BCU      0.133000
     21 H9          6.8200   -0.2780    4.6860 ha        1 BCU      0.132000
     22 H10         5.9010   -0.7890    2.4270 ha        1 BCU      0.130000
     23 H11         3.7370   -1.1880    1.1590 hc        1 BCU      0.053200
     24 H12         3.9180    0.5550    0.7090 hc        1 BCU      0.053200
@<TRIPOS>BOND
     1    1    2 1   
     2    1   13 1   
     3    2    3 1   
     4    2   14 1   
     5    2   15 1   
     6    3    4 1   
     7    3   12 1   
     8    3   16 1   
     9    4    5 1   
    10    4   17 1   
    11    4   18 1   
    12    5    6 1   
    13    6    7 ar  
    14    6   11 ar  
    15    7    8 ar  
    16    7   19 1   
    17    8    9 ar  
    18    8   20 1   
    19    9   10 ar  
    20    9   21 1   
    21   10   11 ar  
    22   10   22 1   
    23   11   12 1   
    24   12   23 1   
    25   12   24 1   
@<TRIPOS>SUBSTRUCTURE
     1 BCU         1 TEMP              0 ****  ****    0 ROOT
