@<TRIPOS>MOLECULE
BCV
   46    46     1     0     0
SMALL
bcc


@<TRIPOS>ATOM
      1 N14          0.0000     0.0000     0.0000 nz         1 BCV       0.083400
      2 C2           1.4690     0.0000     0.0000 c3         1 BCV      -0.199500
      3 C1           1.9720     0.0000     1.4200 c          1 BCV       0.959600
      4 O19          3.2260    -0.3970     1.6890 o          1 BCV      -0.828300
      5 O20          1.2460     0.3570     2.3170 o          1 BCV      -0.828300
      6 C3           1.9790     1.2500    -0.7210 c3         1 BCV      -0.027400
      7 C4           1.5740     1.1880    -2.1950 c3         1 BCV      -0.033400
      8 C7           2.0840     2.4380    -2.9170 c3         1 BCV      -0.088400
      9 C10          1.6850     2.3780    -4.3690 c          1 BCV       0.559100
     10 O15          1.0550     1.4290    -4.7860 o          1 BCV      -0.639100
     11 N11          2.0280     3.3780    -5.2040 ns         1 BCV      -0.157900
     12 C12          1.6400     3.3200    -6.6150 c3         1 BCV      -0.041300
     13 C16          0.2210     3.8680    -6.7780 c3         1 BCV       0.095700
     14 S17         -0.9290     2.8690    -5.7930 sh         1 BCV      -0.395900
     15 C13          2.5960     4.1490    -7.4340 c          1 BCV       0.536100
     16 O18          3.5110     4.7330    -6.8910 o          1 BCV      -0.687100
     17 N29          2.4330     4.2440    -8.7680 ns         1 BCV      -0.108900
     18 C30          3.3620     5.0510    -9.5640 c3         1 BCV      -0.065300
     19 C31          3.3820     4.5410   -10.9820 c          1 BCV       0.978600
     20 O42          4.1670     5.1320   -11.8970 o          1 BCV      -0.880800
     21 O43          2.6910     3.6010   -11.2960 o          1 BCV      -0.880800
     22 C32          2.9080     6.5110    -9.5530 cx         1 BCV      -0.115700
     23 C37          3.7530     7.5210   -10.3330 cx         1 BCV      -0.098400
     24 C33          2.3820     7.0970   -10.8650 cx         1 BCV      -0.098400
     25 H141        -0.3340    -0.6750     0.6590 hn         1 BCV       0.211467
     26 H142        -0.3340    -0.2330    -0.9140 hn         1 BCV       0.211467
     27 H2           1.8310    -0.8840    -0.5110 hx         1 BCV       0.089700
     28 H3C1         1.5470     2.1320    -0.2640 hc         1 BCV       0.050700
     29 H3C2         3.0590     1.2950    -0.6450 hc         1 BCV       0.050700
     30 H4C1         2.0060     0.3060    -2.6520 hc         1 BCV       0.020200
     31 H4C2         0.4940     1.1430    -2.2720 hc         1 BCV       0.020200
     32 H7C1         1.6510     3.3200    -2.4600 hc         1 BCV       0.033700
     33 H7C2         3.1630     2.4840    -2.8400 hc         1 BCV       0.033700
     34 H11          2.5660     4.1510    -4.8650 hn         1 BCV       0.198500
     35 H12          1.6710     2.2920    -6.9560 h1         1 BCV       0.079700
     36 H161        -0.0660     3.8250    -7.8210 h1         1 BCV       0.042200
     37 H162         0.1890     4.8960    -6.4370 h1         1 BCV       0.042200
     38 H17         -2.1730     3.1060    -6.1900 hs         1 BCV       0.155800
     39 H29          1.6980     3.7370    -9.2200 hn         1 BCV       0.191500
     40 H30          4.3560     4.9790    -9.1400 h1         1 BCV       0.060700
     41 H32          2.4390     6.9070    -8.6590 hc         1 BCV       0.033700
     42 H371         3.8030     8.5160    -9.9080 hc         1 BCV       0.056200
     43 H372         4.6060     7.1080   -10.8580 hc         1 BCV       0.056200
     44 H331         1.5940     7.8340   -10.7660 hc         1 BCV       0.056200
     45 H332         2.3970     6.4270   -11.7160 hc         1 BCV       0.056200
     46 H143        -0.3340     0.9100     0.2480 hn         1 BCV       0.211467
@<TRIPOS>BOND
     1     1     2 1   
     2     1    25 1   
     3     1    26 1   
     4     1    46 1   
     5     2     3 1   
     6     2     6 1   
     7     2    27 1   
     8     3     4 1   
     9     3     5 1   
    10     6     7 1   
    11     6    28 1   
    12     6    29 1   
    13     7     8 1   
    14     7    30 1   
    15     7    31 1   
    16     8     9 1   
    17     8    32 1   
    18     8    33 1   
    19     9    10 2   
    20     9    11 1   
    21    11    12 1   
    22    11    34 1   
    23    12    13 1   
    24    12    15 1   
    25    12    35 1   
    26    13    14 1   
    27    13    36 1   
    28    13    37 1   
    29    14    38 1   
    30    15    16 2   
    31    15    17 1   
    32    17    18 1   
    33    17    39 1   
    34    18    19 1   
    35    18    22 1   
    36    18    40 1   
    37    19    20 1   
    38    19    21 1   
    39    22    23 1   
    40    22    24 1   
    41    22    41 1   
    42    23    24 1   
    43    23    42 1   
    44    23    43 1   
    45    24    44 1   
    46    24    45 1   
@<TRIPOS>SUBSTRUCTURE
     1 BCV         1 TEMP              0 ****  ****    0 ROOT
