@<TRIPOS>MOLECULE
BCY
   30    31     1     0     0
SMALL
bcc


@<TRIPOS>ATOM
      1 N            1.4700     0.0000     0.0000 nz         1 BCY       0.074400
      2 N2          -0.8750    -1.1420    -2.0130 n          1 BCY      -0.033200
      3 N3          -1.0440    -0.0200    -2.7740 n3         1 BCY      -0.358600
      4 CB          -0.5140     0.0000     1.4400 c3         1 BCY       0.013900
      5 C1          -0.5080    -1.2230    -0.7230 c          1 BCY       0.593500
      6 C2           0.0000     0.0000     0.0000 c3         1 BCY      -0.172800
      7 C3          -0.5160     1.2420    -0.7340 c3         1 BCY      -0.038400
      8 C4          -0.2510     1.0710    -2.2300 c3         1 BCY       0.124800
      9 C6          -0.4850    -0.3440    -4.1100 c3         1 BCY       0.124800
     10 C7          -0.9200    -1.8160    -4.3160 c3         1 BCY      -0.012400
     11 C8          -1.1910    -2.3000    -2.8740 c3         1 BCY      -0.138300
     12 C9          -0.2970    -3.4640    -2.5360 c          1 BCY       0.645900
     13 O2          -0.7800    -4.5220    -2.2090 o          1 BCY      -0.452100
     14 HN1          1.8030     0.9180     0.2200 hn         1 BCY       0.229467
     15 HN2          1.8030    -0.6490     0.6850 hn         1 BCY       0.229467
     16 HB1         -0.1270    -0.8670     1.9620 hc         1 BCY       0.046033
     17 HB2         -1.5970    -0.0340     1.4370 hc         1 BCY       0.046033
     18 HB3         -0.1830     0.9010     1.9420 hc         1 BCY       0.046033
     19 H31         -1.5810     1.3480    -0.5650 hc         1 BCY       0.066700
     20 H32          0.0050     2.1200    -0.3720 hc         1 BCY       0.066700
     21 H41         -0.5100     1.9890    -2.7440 h1         1 BCY       0.027700
     22 H42          0.8000     0.8570    -2.3820 h1         1 BCY       0.027700
     23 H61          0.5950    -0.2610    -4.1020 h1         1 BCY       0.037700
     24 H62         -0.9210     0.2930    -4.8700 h1         1 BCY       0.037700
     25 H71         -0.0530    -2.3560    -4.6760 hc         1 BCY       0.056200
     26 H72         -1.8730    -1.7980    -4.8300 hc         1 BCY       0.056200
     27 H8          -2.2330    -2.5750    -2.7630 h1         1 BCY       0.084700
     28 H9           0.7280    -3.1980    -2.7630 h4         1 BCY      -0.046800
     29 O1          -0.5860    -2.2820    -0.1380 o          1 BCY      -0.611500
     30 HN3          1.8030    -0.2680    -0.9050 hn         1 BCY       0.229467
@<TRIPOS>BOND
     1     1     6 1   
     2     1    14 1   
     3     1    15 1   
     4     1    30 1   
     5     2     3 1   
     6     2     5 1   
     7     2    11 1   
     8     3     8 1   
     9     3     9 1   
    10     4     6 1   
    11     4    16 1   
    12     4    17 1   
    13     4    18 1   
    14     5     6 1   
    15     5    29 2   
    16     6     7 1   
    17     7     8 1   
    18     7    19 1   
    19     7    20 1   
    20     8    21 1   
    21     8    22 1   
    22     9    10 1   
    23     9    23 1   
    24     9    24 1   
    25    10    11 1   
    26    10    25 1   
    27    10    26 1   
    28    11    12 1   
    29    11    27 1   
    30    12    13 2   
    31    12    28 1   
@<TRIPOS>SUBSTRUCTURE
     1 BCY         1 TEMP              0 ****  ****    0 ROOT
