@<TRIPOS>MOLECULE
BCZ
   51    51     1     0     0
SMALL
bcc


@<TRIPOS>ATOM
      1 C2           0.0000     0.0000     0.0000 c3         1 BCZ       0.094500
      2 N25         -0.5280     0.5520    -1.2500 nu         1 BCZ      -0.459200
      3 C26         -1.7820     0.1960    -1.6830 c2         1 BCZ       0.240100
      4 N30         -2.5030    -0.6330    -0.9810 n2         1 BCZ      -0.686100
      5 N27         -2.2780     0.7120    -2.8560 nz         1 BCZ       0.196400
      6 C3           1.5480     0.0000     0.0000 c3         1 BCZ      -0.076700
      7 C10          2.0840    -1.2550    -0.6890 c3         1 BCZ       0.031700
      8 C24          3.6040    -1.1550    -0.8250 c3         1 BCZ      -0.065700
      9 C37          4.2420    -1.1780     0.5650 c3         1 BCZ      -0.053400
     10 C38          5.7610    -1.0480     0.4320 c3         1 BCZ      -0.017100
     11 C36          4.1230    -2.3360    -1.6450 c3         1 BCZ      -0.053400
     12 C39          3.6430    -2.2030    -3.0920 c3         1 BCZ      -0.017100
     13 N11          1.4830    -1.3760    -2.0200 ns         1 BCZ      -0.183900
     14 C13          1.5660    -0.3530    -2.8920 c          1 BCZ       0.550100
     15 C15          0.8780    -0.4450    -4.2300 c3         1 BCZ      -0.078100
     16 O14          2.1960     0.6410    -2.6010 o          1 BCZ      -0.640100
     17 C4           1.9300     0.0000     1.4940 c3         1 BCZ       0.174100
     18 O9           2.1830    -1.3350     1.9340 oh         1 BCZ      -0.626800
     19 C5           0.7300     0.5880     2.2550 c3         1 BCZ      -0.188700
     20 C6           1.1440     1.8380     2.9880 c          1 BCZ       0.971600
     21 O8           0.2470     2.5170     3.7200 o          1 BCZ      -0.867300
     22 O7           2.2850     2.2290     2.9170 o          1 BCZ      -0.867300
     23 C1          -0.3400     0.9270     1.1960 c3         1 BCZ      -0.004400
     24 H21         -0.3800    -1.0000     0.1740 h1         1 BCZ       0.045700
     25 H251        -0.0310     1.2840    -1.7180 hn         1 BCZ       0.322800
     26 H301        -2.1440    -1.0110    -0.1270 hn         1 BCZ       0.397400
     27 H271        -3.2480     0.9320    -2.7400 hn         1 BCZ       0.216800
     28 H272        -2.1740     0.0380    -3.5880 hn         1 BCZ       0.216800
     29 H31          1.9240     0.8940    -0.4840 hc         1 BCZ       0.087700
     30 H101         1.8300    -2.1270    -0.0980 h1         1 BCZ       0.065700
     31 H241         3.8620    -0.2290    -1.3240 hc         1 BCZ       0.065700
     32 H371         4.0020    -2.1130     1.0580 hc         1 BCZ       0.038450
     33 H372         3.8600    -0.3520     1.1520 hc         1 BCZ       0.038450
     34 H381         6.1910    -2.0220     0.2310 hc         1 BCZ       0.002867
     35 H382         6.1730    -0.6550     1.3540 hc         1 BCZ       0.002867
     36 H383         5.9960    -0.3750    -0.3840 hc         1 BCZ       0.002867
     37 H361         5.2060    -2.3440    -1.6240 hc         1 BCZ       0.038450
     38 H362         3.7470    -3.2610    -1.2240 hc         1 BCZ       0.038450
     39 H391         4.3590    -2.6730    -3.7550 hc         1 BCZ       0.002867
     40 H392         2.6790    -2.6870    -3.1990 hc         1 BCZ       0.002867
     41 H393         3.5500    -1.1540    -3.3460 hc         1 BCZ       0.002867
     42 H111         0.9750    -2.2030    -2.2660 hn         1 BCZ       0.173500
     43 H151         0.4540     0.5180    -4.4850 hc         1 BCZ       0.014033
     44 H152         1.5970    -0.7360    -4.9860 hc         1 BCZ       0.014033
     45 H153         0.0880    -1.1850    -4.1790 hc         1 BCZ       0.014033
     46 H41          2.8040     0.6190     1.6510 h1         1 BCZ       0.097700
     47 HO91         2.1360    -1.3700     2.8760 ho         1 BCZ       0.411000
     48 H51          0.3400    -0.1440     2.9510 hc         1 BCZ       0.039700
     49 H11         -1.3300     0.7050     1.5750 hc         1 BCZ       0.027700
     50 H12         -0.2640     1.9660     0.9010 hc         1 BCZ       0.027700
     51 H273        -1.7730     1.5420    -3.0950 hn         1 BCZ       0.216800
@<TRIPOS>BOND
     1     1     2 1   
     2     1     6 1   
     3     1    23 1   
     4     1    24 1   
     5     2     3 1   
     6     2    25 1   
     7     3     4 2   
     8     3     5 1   
     9     4    26 1   
    10     5    27 1   
    11     5    28 1   
    12     5    51 1   
    13     6     7 1   
    14     6    17 1   
    15     6    29 1   
    16     7     8 1   
    17     7    13 1   
    18     7    30 1   
    19     8     9 1   
    20     8    11 1   
    21     8    31 1   
    22     9    10 1   
    23     9    32 1   
    24     9    33 1   
    25    10    34 1   
    26    10    35 1   
    27    10    36 1   
    28    11    12 1   
    29    11    37 1   
    30    11    38 1   
    31    12    39 1   
    32    12    40 1   
    33    12    41 1   
    34    13    14 1   
    35    13    42 1   
    36    14    15 1   
    37    14    16 2   
    38    15    43 1   
    39    15    44 1   
    40    15    45 1   
    41    17    18 1   
    42    17    19 1   
    43    17    46 1   
    44    18    47 1   
    45    19    20 1   
    46    19    23 1   
    47    19    48 1   
    48    20    21 1   
    49    20    22 1   
    50    23    49 1   
    51    23    50 1   
@<TRIPOS>SUBSTRUCTURE
     1 BCZ         1 TEMP              0 ****  ****    0 ROOT
