@<TRIPOS>MOLECULE
molecule
   51    51     1     0     0
SMALL
bcc


@<TRIPOS>ATOM
      1 C2           0.0000     0.0000     0.0000 c3         1 BCZ       0.218500
      2 N25         -0.5280     0.5520    -1.2500 nu         1 BCZ      -0.815200
      3 C26         -1.7820     0.1960    -1.6830 c2         1 BCZ       0.678100
      4 N30         -2.5030    -0.6330    -0.9810 n2         1 BCZ      -0.803100
      5 N27         -2.2780     0.7120    -2.8560 nz         1 BCZ      -0.808600
      6 C3           1.5480     0.0000     0.0000 c3         1 BCZ      -0.090700
      7 C10          2.0840    -1.2550    -0.6890 c3         1 BCZ       0.127700
      8 C24          3.6040    -1.1550    -0.8250 c3         1 BCZ      -0.079700
      9 C37          4.2420    -1.1780     0.5650 c3         1 BCZ      -0.082900
     10 C38          5.7610    -1.0480     0.4320 c3         1 BCZ      -0.095600
     11 C36          4.1230    -2.3360    -1.6450 c3         1 BCZ      -0.082900
     12 C39          3.6430    -2.2030    -3.0920 c3         1 BCZ      -0.095600
     13 N11          1.4830    -1.3760    -2.0200 ns         1 BCZ      -0.568900
     14 C13          1.5660    -0.3530    -2.8920 c          1 BCZ       0.642100
     15 C15          0.8780    -0.4450    -4.2300 c3         1 BCZ      -0.182100
     16 O14          2.1960     0.6410    -2.6010 o          1 BCZ      -0.612100
     17 C4           1.9300     0.0000     1.4940 c3         1 BCZ       0.146100
     18 O9           2.1830    -1.3350     1.9340 oh         1 BCZ      -0.643800
     19 C5           0.7300     0.5880     2.2550 c3         1 BCZ      -0.206700
     20 C6           1.1440     1.8380     2.9880 c          1 BCZ       0.886600
     21 O8           0.2470     2.5170     3.7200 o          1 BCZ      -0.823800
     22 O7           2.2850     2.2290     2.9170 o          1 BCZ      -0.823800
     23 C1          -0.3400     0.9270     1.1960 c3         1 BCZ      -0.065400
     24 H21         -0.3800    -0.9990     0.1740 h1         1 BCZ       0.093700
     25 H251        -0.0310     1.2840    -1.7180 hn         1 BCZ       0.460800
     26 H301        -3.4160    -0.8930    -1.2960 hn         1 BCZ       0.418400
     27 H271        -1.6780     1.4460    -3.1780 hn         1 BCZ       0.458800
     28 H272        -3.1960     1.0790    -2.6980 hn         1 BCZ       0.458800
     29 H31          1.9240     0.8940    -0.4840 hc         1 BCZ       0.100700
     30 H101         1.8300    -2.1270    -0.0980 h1         1 BCZ       0.090700
     31 H241         3.8620    -0.2290    -1.3240 hc         1 BCZ       0.077700
     32 H371         4.0020    -2.1130     1.0580 hc         1 BCZ       0.056950
     33 H372         3.8600    -0.3520     1.1520 hc         1 BCZ       0.056950
     34 H381         6.1760    -0.6860     1.3640 hc         1 BCZ       0.028367
     35 H382         5.9960    -0.3510    -0.3630 hc         1 BCZ       0.028367
     36 H383         6.1880    -2.0170     0.2000 hc         1 BCZ       0.028367
     37 H361         3.7470    -3.2610    -1.2240 hc         1 BCZ       0.056950
     38 H362         5.2060    -2.3440    -1.6240 hc         1 BCZ       0.056950
     39 H391         4.3530    -2.6820    -3.7540 hc         1 BCZ       0.028367
     40 H392         3.5600    -1.1540    -3.3490 hc         1 BCZ       0.028367
     41 H393         2.6750    -2.6780    -3.1960 hc         1 BCZ       0.028367
     42 H111         0.9750    -2.2030    -2.2660 hn         1 BCZ       0.308500
     43 H151         1.5920    -0.7550    -4.9830 hc         1 BCZ       0.048033
     44 H152         0.4720     0.5230    -4.4940 hc         1 BCZ       0.048033
     45 H153         0.0750    -1.1700    -4.1730 hc         1 BCZ       0.048033
     46 H41          2.8040     0.6190     1.6510 h1         1 BCZ       0.115700
     47 HO91         2.1400    -1.3700     2.8760 ho         1 BCZ       0.418000
     48 H51          0.3400    -0.1440     2.9510 hc         1 BCZ       0.062700
     49 H11         -0.2640     1.9660     0.9010 hc         1 BCZ       0.058700
     50 H12         -1.3300     0.7050     1.5750 hc         1 BCZ       0.058700
     51 H273        -2.2740     0.0020    -3.5610 hn         1 BCZ       0.458800
@<TRIPOS>BOND
     1     1     2 1
     2     1     6 1
     3     1    23 1
     4     1    24 1
     5     2     3 1
     6     2    25 1
     7     3     4 2
     8     3     5 1
     9     4    26 1
    10     5    27 1
    11     5    28 1
    12     6     7 1
    13     6    17 1
    14     6    29 1
    15     7     8 1
    16     7    13 1
    17     7    30 1
    18     8     9 1
    19     8    11 1
    20     8    31 1
    21     9    10 1
    22     9    32 1
    23     9    33 1
    24    10    34 1
    25    10    35 1
    26    10    36 1
    27    11    12 1
    28    11    37 1
    29    11    38 1
    30    12    39 1
    31    12    40 1
    32    12    41 1
    33    13    14 1
    34    13    42 1
    35    14    15 1
    36    14    16 2
    37    15    43 1
    38    15    44 1
    39    15    45 1
    40    17    18 1
    41    17    19 1
    42    17    46 1
    43    18    47 1
    44    19    20 1
    45    19    23 1
    46    19    48 1
    47    20    21 1
    48    20    22 1
    49    23    49 1
    50    23    50 1
    51    51     5 1
@<TRIPOS>SUBSTRUCTURE
     1 BCZ         1 TEMP              0 ****  ****    0 ROOT
