@<TRIPOS>MOLECULE
BD0
   54    56     1     0     0
SMALL
bcc


@<TRIPOS>ATOM
      1 C4          0.4010    0.2440   -0.0690 ca        1 BD0      0.214000
      2 C6          1.6600   -0.3750    0.1040 ca        1 BD0     -0.249000
      3 C7          2.2470   -0.3820    1.3790 ca        1 BD0     -0.038000
      4 C8          1.6240    0.2210    2.4630 ca        1 BD0     -0.129000
      5 C10         2.2770   -1.0560   -1.0340 c2        1 BD0      0.372000
      6 N12         3.7620   -0.7130   -1.2480 n4        1 BD0     -0.103000
      7 C13         4.4460   -1.6820   -2.1790 c3        1 BD0     -0.099000
      8 C15         4.8690   -0.4310   -4.3340 c3        1 BD0     -0.229000
      9 C17         4.7480    1.5890   -1.3470 ca        1 BD0     -0.271000
     10 C20         6.5060    3.6970   -0.6710 ca        1 BD0      0.028000
     11 C21         7.4930    4.7530   -0.2540 c3        1 BD0     -0.048000
     12 C24         5.8120    7.6440   -1.7260 c3        1 BD0     -0.223000
     13 C28         7.7710    6.2020   -2.2220 c3        1 BD0     -0.121000
     14 C2          0.3610    0.8490    2.2760 ca        1 BD0      0.196000
     15 C3         -0.2440    0.8580    1.0140 ca        1 BD0     -0.313000
     16 O5         -0.1260    0.2290   -1.3260 oh        1 BD0     -0.223000
     17 CL9         2.3760    0.1800    3.9760 cl        1 BD0      0.059000
     18 O11         1.7750   -1.8530   -1.8080 o         1 BD0     -0.166000
     19 C14         4.1160   -1.5440   -3.6580 c3        1 BD0     -0.170000
     20 C16         3.8000    0.6360   -1.7890 c1        1 BD0      0.082000
     21 C18         4.6430    2.8600   -1.9700 ca        1 BD0      0.000000
     22 C19         5.5100    3.8920   -1.6300 ca        1 BD0     -0.174500
     23 N22         7.4560    6.0770   -0.8090 n3        1 BD0     -0.256000
     24 C23         6.2850    6.8890   -0.4800 c3        1 BD0     -0.074000
     25 C25         6.6850    7.1190   -2.9010 c3        1 BD0      0.249000
     26 F26         7.2480    8.1220   -3.6530 f         1 BD0     -0.158500
     27 F27         5.9470    6.4280   -3.8410 f         1 BD0     -0.158500
     28 C29         6.6190    2.4350   -0.0440 ca        1 BD0     -0.174500
     29 C30         5.7630    1.4050   -0.3720 ca        1 BD0      0.000000
     30 H7          3.2050   -0.9010    1.5450 ha        1 BD0      0.145000
     31 H13         4.1450   -2.7140   -1.8330 hx        1 BD0      0.129500
     32 H13A        5.5550   -1.5460   -2.0230 hx        1 BD0      0.129500
     33 H15         4.5480    0.5690   -3.9490 hc        1 BD0      0.092000
     34 H15A        4.6640   -0.4540   -5.4340 hc        1 BD0      0.092000
     35 H21         8.5260    4.3370   -0.4640 h1        1 BD0      0.131000
     36 H21A        7.3960    4.8700    0.8690 h1        1 BD0      0.131000
     37 H24A        5.9660    8.7450   -1.6110 hc        1 BD0      0.128000
     38 H28         7.8130    5.2150   -2.7550 h1        1 BD0      0.121000
     39 H28A        8.7710    6.7080   -2.3090 h1        1 BD0      0.121000
     40 HO1        -1.0860    1.7890    3.1050 ho        1 BD0      0.247000
     41 H3         -1.2240    1.3370    0.8710 ha        1 BD0      0.167000
     42 HO5        -1.0080    0.6380   -1.3070 ho        1 BD0      0.252000
     43 H14         4.3950   -2.5260   -4.1340 hc        1 BD0      0.127000
     44 H14A        3.0110   -1.4080   -3.8040 hc        1 BD0      0.127000
     45 H16         5.9710   -0.5380   -4.1830 hc        1 BD0      0.092000
     46 H18         3.8610    3.0150   -2.7360 ha        1 BD0      0.152000
     47 H19         5.4040    4.8670   -2.1400 ha        1 BD0      0.168500
     48 H23         6.6030    7.6140    0.3200 h1        1 BD0      0.097500
     49 H23A        5.4450    6.2630   -0.0670 h1        1 BD0      0.097500
     50 H29         7.4070    2.2830    0.7140 ha        1 BD0      0.168500
     51 H30         5.8850    0.4330    0.1330 ha        1 BD0      0.152000
     52 H241        4.2220   -0.8130   -0.3320 hn        1 BD0      0.188000
     53 O1         -0.2170    1.4330    3.3610 oh        1 BD0     -0.204000
     54 H24         4.7320    7.4550   -1.9330 hc        1 BD0      0.128000
@<TRIPOS>BOND
     1    1    2 1   
     2    1   15 1   
     3    1   16 1   
     4    2    3 1   
     5    2    5 1   
     6    3    4 1   
     7    3   30 1   
     8    4   14 1   
     9    4   17 1   
    10    5    6 1   
    11    5   18 1   
    12    6    7 1   
    13    6   20 1   
    14    6   52 1   
    15    7   19 1   
    16    7   31 1   
    17    7   32 1   
    18    8   19 1   
    19    8   33 1   
    20    8   34 1   
    21    8   45 1   
    22    9   20 1   
    23    9   21 1   
    24    9   29 1   
    25   10   11 1   
    26   10   22 1   
    27   10   28 1   
    28   11   23 1   
    29   11   35 1   
    30   11   36 1   
    31   12   24 1   
    32   12   25 1   
    33   12   37 1   
    34   12   54 1   
    35   13   23 1   
    36   13   25 1   
    37   13   38 1   
    38   13   39 1   
    39   14   15 1   
    40   14   53 1   
    41   15   41 1   
    42   16   42 1   
    43   19   43 1   
    44   19   44 1   
    45   21   22 1   
    46   21   46 1   
    47   22   47 1   
    48   23   24 1   
    49   24   48 1   
    50   24   49 1   
    51   25   26 1   
    52   25   27 1   
    53   28   29 1   
    54   28   50 1   
    55   29   51 1   
    56   40   53 1   
@<TRIPOS>SUBSTRUCTURE
     1 BD0         1 TEMP              0 ****  ****    0 ROOT
