@<TRIPOS>MOLECULE
molecule
   54    57     1     0     0
SMALL
bcc


@<TRIPOS>ATOM
      1 C4           0.0000     0.0000     0.0000 ca         1 BD0       0.218100
      2 C6           1.4070     0.0000     0.0000 ca         1 BD0      -0.237600
      3 C7           2.1010     0.0000     1.2170 ca         1 BD0      -0.075000
      4 C8           1.4130    -0.0010     2.3970 ca         1 BD0       0.003400
      5 C10          2.1420    -0.0000    -1.2670 c          1 BD0       0.545700
      6 N12          3.5400    -0.0000    -1.2640 nx         1 BD0      -0.552200
      7 C13          4.0380    -1.3920    -1.2970 c3         1 BD0       0.099800
      8 C15          4.8640    -0.3090    -3.2780 c3         1 BD0      -0.089400
      9 C17          4.9130     1.8600    -2.0440 ca         1 BD0      -0.171300
     10 C20          6.5170     3.9790    -1.2820 ca         1 BD0      -0.122300
     11 C21          7.3700     5.1480    -0.8590 c3         1 BD0       0.252100
     12 C24          6.7120     7.4320    -1.2400 c3         1 BD0      -0.157400
     13 C28          7.6930     6.0650    -2.8240 c3         1 BD0      -0.075200
     14 C2           0.0200    -0.0010     2.4000 ca         1 BD0       0.197100
     15 C3          -0.6830    -0.0010     1.2050 ca         1 BD0      -0.188000
     16 O5          -0.7000     0.1030    -1.2120 oh         1 BD0      -0.494100
     17 Cl9          2.2980    -0.0970     3.9440 cl         1 BD0      -0.055400
     18 O11          1.5590    -0.1580    -2.2870 o          1 BD0      -0.408100
     19 C14          4.3140    -1.6780    -2.7940 c3         1 BD0      -0.098400
     20 C16          4.0390     0.7060    -2.4590 c3         1 BD0       0.180800
     21 C18          4.8360     3.0640    -2.7200 ca         1 BD0      -0.145500
     22 C19          5.6380     4.1230    -2.3390 ca         1 BD0      -0.050500
     23 N22          6.6000     5.2220    -1.9500 n3         1 BD0      -0.800600
     24 C23          6.4050     5.9280    -0.8440 c3         1 BD0       0.028800
     25 C25          7.1010     7.3970    -2.7390 c3         1 BD0       0.465600
     26 F26          8.1500     8.2650    -2.8470 f          1 BD0      -0.219800
     27 F27          6.1310     7.7010    -3.6500 f          1 BD0      -0.219800
     28 C29          6.5910     2.7780    -0.6030 ca         1 BD0      -0.050500
     29 C30          5.7890     1.7190    -0.9830 ca         1 BD0      -0.145500
     30 H7           3.1840     0.0000     1.2230 ha         1 BD0       0.137000
     31 H13          4.7360    -1.5600    -0.4860 hx         1 BD0       0.108200
     32 H13A         3.2100    -2.0880    -1.2370 hx         1 BD0       0.108200
     33 H15          5.9300    -0.3760    -3.4570 hc         1 BD0       0.097200
     34 H15A         4.3450     0.0070    -4.1740 hc         1 BD0       0.097200
     35 H21          7.9630     4.8680     0.0030 h1         1 BD0       0.016200
     36 H21A         8.0270     5.4290    -1.6730 h1         1 BD0       0.016200
     37 H24A         5.7890     7.9970    -1.3030 hc         1 BD0       0.095700
     38 H28          8.3840     5.3870    -3.3090 h1         1 BD0       0.107700
     39 H28A         8.2260     6.7580    -2.1840 h1         1 BD0       0.107700
     40 HO1         -0.9700     0.8090     3.8500 ho         1 BD0       0.443000
     41 H3          -1.7670    -0.0010     1.2130 ha         1 BD0       0.185000
     42 HO5         -1.1530     0.9290    -1.2440 ho         1 BD0       0.442000
     43 H14          3.4490    -2.1390    -3.2540 hc         1 BD0       0.095200
     44 H14A         5.1870    -2.3110    -2.9000 hc         1 BD0       0.095200
     45 H16          3.2050     1.0620    -3.0500 hx         1 BD0       0.124700
     46 H18          4.1340     3.1820    -3.5370 ha         1 BD0       0.118000
     47 H19          5.5850     5.0620    -2.8760 ha         1 BD0       0.168000
     48 H23          7.2050     5.5330    -0.2300 h1         1 BD0       0.227700
     49 H23A         5.4570     5.8650    -0.3220 h1         1 BD0       0.227700
     50 H29          7.2840     2.6640     0.2220 ha         1 BD0       0.168000
     51 H30          5.8340     0.7830    -0.4390 ha         1 BD0       0.118000
     52 H241         3.8780     0.4560    -0.4400 hn         1 BD0       0.461800
     53 O1          -0.6780    -0.0560     3.6160 oh         1 BD0      -0.494100
     54 H24          7.3830     7.8790    -0.5170 hc         1 BD0       0.095700
@<TRIPOS>BOND
     1     1     2 ar
     2     1    15 ar
     3     1    16 1
     4     2     3 ar
     5     2     5 1
     6     3     4 ar
     7     3    30 1
     8     4    14 ar
     9     4    17 1
    10     5     6 1
    11     5    18 2
    12     6     7 1
    13     6    20 1
    14     7    19 1
    15     7    31 1
    16     7    32 1
    17     8    19 1
    18     8    20 1
    19     8    33 1
    20     8    34 1
    21     9    20 1
    22     9    21 ar
    23     9    29 ar
    24    10    11 1
    25    10    22 ar
    26    10    28 ar
    27    11    23 1
    28    11    35 1
    29    11    36 1
    30    12    24 1
    31    12    25 1
    32    12    54 1
    33    12    37 1
    34    13    23 1
    35    13    25 1
    36    13    38 1
    37    13    39 1
    38    53    14 1
    39    53    40 1
    40    14    15 ar
    41    15    41 1
    42    16    42 1
    43    19    43 1
    44    19    44 1
    45    20    45 1
    46    21    22 ar
    47    21    46 1
    48    22    47 1
    49    23    24 1
    50    24    48 1
    51    24    49 1
    52    25    26 1
    53    25    27 1
    54    28    29 ar
    55    28    50 1
    56    29    51 1
    57     6    52 1
@<TRIPOS>SUBSTRUCTURE
     1 BD0         1 TEMP              0 ****  ****    0 ROOT
