@<TRIPOS>MOLECULE
molecule
   20    21     1     0     0
SMALL
bcc


@<TRIPOS>ATOM
      1 C1           0.0000     0.0000     0.0000 c2         1 BD1      -0.167700
      2 C2           1.4920     0.0000     0.0000 c3         1 BD1      -0.049700
      3 C3           2.0810     0.0000     1.4130 c3         1 BD1       0.114600
      4 O3           3.3540    -0.6970     1.2930 os         1 BD1      -0.419100
      5 C4           1.3090    -0.9770     2.3230 c3         1 BD1       0.114600
      6 O4           1.6720    -2.2480     1.7800 os         1 BD1      -0.419100
      7 C5          -0.1750    -0.7110     2.3450 c3         1 BD1      -0.049700
      8 C6          -0.7340    -0.3230     1.0120 c2         1 BD1      -0.167700
      9 C7           3.0730    -2.0950     1.4690 c3         1 BD1       0.502700
     10 O1           3.8630    -2.6120     2.5400 oh         1 BD1      -0.610800
     11 H1          -0.5030     0.2920    -0.9140 ha         1 BD1       0.123500
     12 H2C1         1.8400    -0.8830    -0.5230 hc         1 BD1       0.063200
     13 H2C2         1.8400     0.8830    -0.5230 hc         1 BD1       0.063200
     14 H3           2.1810     0.9910     1.8380 h1         1 BD1       0.080700
     15 H4           1.6950    -0.9010     3.3320 h1         1 BD1       0.080700
     16 H5C1        -0.6810    -1.6070     2.6830 hc         1 BD1       0.063200
     17 H5C2        -0.3710     0.0900     3.0470 hc         1 BD1       0.063200
     18 H6          -1.8100    -0.3140     0.8900 ha         1 BD1       0.123500
     19 H7           3.3000    -2.6270     0.5530 h3         1 BD1       0.072700
     20 HA           4.4010    -3.3180     2.2220 ho         1 BD1       0.419000
@<TRIPOS>BOND
     1     1     2 1
     2     1     8 2
     3     1    11 1
     4     2     3 1
     5     2    12 1
     6     2    13 1
     7     3     4 1
     8     3     5 1
     9     3    14 1
    10     4     9 1
    11     5     6 1
    12     5     7 1
    13     5    15 1
    14     6     9 1
    15     7     8 1
    16     7    16 1
    17     7    17 1
    18     8    18 1
    19     9    10 1
    20     9    19 1
    21    10    20 1
@<TRIPOS>SUBSTRUCTURE
     1 BD1         1 TEMP              0 ****  ****    0 ROOT
