@<TRIPOS>MOLECULE
BD1
   20    21     1     0     0
SMALL
bcc


@<TRIPOS>ATOM
      1 C1          0.0540    0.5060    0.1420 c2        1 BD1     -0.171200
      2 C2          1.4130   -0.0040   -0.1540 c3        1 BD1     -0.054200
      3 C3          2.1700   -0.3910    1.1080 c3        1 BD1      0.124100
      4 O3          3.0940   -1.4430    0.7740 os        1 BD1     -0.461600
      5 C4          1.3240   -0.9650    2.2640 c3        1 BD1      0.124100
      6 O4          1.8460   -2.2890    2.4770 os        1 BD1     -0.461600
      7 C5         -0.1730   -1.0780    2.0140 c3        1 BD1     -0.054200
      8 C6         -0.6780    0.0090    1.1440 c2        1 BD1     -0.171200
      9 C7          3.0170   -2.4940    1.7140 c3        1 BD1      0.514700
     10 O1          4.1040   -2.3790    2.5680 oh        1 BD1     -0.609800
     11 H1         -0.3240    1.2980   -0.5200 ha        1 BD1      0.132000
     12 H2C1        1.3330   -0.9030   -0.8260 hc        1 BD1      0.068700
     13 H2C2        2.0110    0.7670   -0.7090 hc        1 BD1      0.068700
     14 H3          2.7850    0.4760    1.4720 h1        1 BD1      0.062700
     15 H4          1.5150   -0.3860    3.2080 h1        1 BD1      0.062700
     16 H5C1       -0.7040   -1.0720    3.0020 hc        1 BD1      0.068700
     17 H5C2       -0.3910   -2.0710    1.5300 hc        1 BD1      0.068700
     18 H6         -1.6970    0.3680    1.3550 ha        1 BD1      0.132000
     19 H7          3.0350   -3.5000    1.2280 h3        1 BD1      0.144700
     20 HA          4.0880   -1.5100    2.9880 ho        1 BD1      0.414000
@<TRIPOS>BOND
     1    1    2 1   
     2    1    8 2   
     3    1   11 1   
     4    2    3 1   
     5    2   12 1   
     6    2   13 1   
     7    3    4 1   
     8    3    5 1   
     9    3   14 1   
    10    4    9 1   
    11    5    6 1   
    12    5    7 1   
    13    5   15 1   
    14    6    9 1   
    15    7    8 1   
    16    7   16 1   
    17    7   17 1   
    18    8   18 1   
    19    9   10 1   
    20    9   19 1   
    21   10   20 1   
@<TRIPOS>SUBSTRUCTURE
     1 BD1         1 TEMP              0 ****  ****    0 ROOT
