@<TRIPOS>MOLECULE
BD2
   61    64     1     0     0
SMALL
bcc


@<TRIPOS>ATOM
      1 O1           0.0000     0.0000     0.0000 oh         1 BD2      -0.501100
      2 C1           1.3570     0.0000     0.0000 ca         1 BD2       0.148100
      3 C2           2.0490     0.0000     1.2050 ca         1 BD2      -0.150500
      4 C3           3.4260     0.0000     1.2100 ca         1 BD2      -0.039000
      5 C4           4.1280    -0.0000     0.0010 ca         1 BD2      -0.176600
      6 C5           3.4280    -0.0010    -1.2080 ca         1 BD2      -0.039000
      7 C6           2.0500    -0.0060    -1.2040 ca         1 BD2      -0.150500
      8 C7           5.6040    -0.0010     0.0020 c          1 BD2       0.598700
      9 O7           6.2110    -0.0010     1.0550 o          1 BD2      -0.646100
     10 N8           6.2780    -0.0010    -1.1650 ns         1 BD2      -0.179900
     11 C8           7.7420    -0.0010    -1.1630 c3         1 BD2      -0.001300
     12 C9           8.2470    -0.7080    -2.3960 c3         1 BD2       0.174100
     13 C10          9.5700    -1.4520    -2.1350 c3         1 BD2      -0.045400
     14 C11         10.5220    -0.6200    -1.2480 c3         1 BD2      -0.028400
     15 C12         10.4900     0.8370    -1.6330 c3         1 BD2       0.119800
     16 N13          9.5740     1.5490    -0.7220 n7         1 BD2      -0.550200
     17 C14          8.2580     1.4510    -1.1670 c3         1 BD2       0.132800
     18 O9           7.2460    -1.6640    -2.8350 os         1 BD2      -0.415900
     19 C15          7.0990    -1.9310    -4.1470 c          1 BD2       0.718700
     20 O15          7.8050    -1.3720    -4.9620 o          1 BD2      -0.586000
     21 C16          6.0810    -2.9040    -4.5940 ca         1 BD2      -0.129600
     22 C17          5.2730    -3.5500    -3.6560 ca         1 BD2      -0.064500
     23 C18          4.3200    -4.4530    -4.0730 ca         1 BD2      -0.062000
     24 C19          4.1680    -4.7300    -5.4330 ca         1 BD2      -0.143600
     25 C20          4.9790    -4.0880    -6.3700 ca         1 BD2      -0.062000
     26 C21          5.9290    -3.1820    -5.9530 ca         1 BD2      -0.064500
     27 C22          3.1480    -5.7040    -5.8810 c          1 BD2       0.658300
     28 O22          2.5250    -6.3500    -5.0620 o          1 BD2      -0.549100
     29 C23          2.8880    -5.8890    -7.3190 ca         1 BD2      -0.203600
     30 C24          3.0090    -7.1570    -7.8980 ca         1 BD2      -0.024000
     31 C25          2.7650    -7.3240    -9.2420 ca         1 BD2      -0.133000
     32 C26          2.4000    -6.2420   -10.0270 ca         1 BD2      -0.050000
     33 C27          2.2770    -4.9850    -9.4690 ca         1 BD2      -0.177000
     34 C28          2.5130    -4.7990    -8.1150 ca         1 BD2       0.164100
     35 O28          2.3920    -3.5640    -7.5660 oh         1 BD2      -0.493100
     36 HO1         -0.3140     0.8890    -0.0030 ho         1 BD2       0.406000
     37 H2           1.5050     0.0000     2.1420 ha         1 BD2       0.117000
     38 H3           3.9650     0.0000     2.1500 ha         1 BD2       0.116000
     39 H5           3.9680    -0.0030    -2.1470 ha         1 BD2       0.116000
     40 H6           1.5070    -0.0060    -2.1410 ha         1 BD2       0.117000
     41 HN8          5.7790     0.0460    -2.0310 hn         1 BD2       0.181500
     42 H8           8.1080    -0.5110    -0.2810 h1         1 BD2       0.089700
     43 H9           8.4070     0.0250    -3.1780 h1         1 BD2       0.041700
     44 H101        10.0560    -1.6510    -3.0830 hc         1 BD2       0.027200
     45 H102         9.3550    -2.3900    -1.6380 hc         1 BD2       0.027200
     46 H111        11.5320    -0.9940    -1.3630 hc         1 BD2       0.029700
     47 H112        10.2170    -0.7180    -0.2130 hc         1 BD2       0.029700
     48 H121        10.1350     0.9340    -2.6530 h1         1 BD2       0.015200
     49 H122        11.4850     1.2560    -1.5470 h1         1 BD2       0.015200
     50 H13          9.8380     2.5130    -0.6700 hn         1 BD2       0.253800
     51 H141         8.2010     1.8380    -2.1770 h1         1 BD2       0.009200
     52 H142         7.6250     2.0470    -0.5210 h1         1 BD2       0.009200
     53 H17          5.3910    -3.3360    -2.6010 ha         1 BD2       0.124500
     54 H18          3.6930    -4.9530    -3.3450 ha         1 BD2       0.125500
     55 H20          4.8610    -4.3020    -7.4260 ha         1 BD2       0.125500
     56 H21          6.5570    -2.6830    -6.6810 ha         1 BD2       0.124500
     57 H24          3.2940    -8.0070    -7.2890 ha         1 BD2       0.114000
     58 H25          2.8580    -8.3060    -9.6890 ha         1 BD2       0.110000
     59 H26          2.2120    -6.3820   -11.0850 ha         1 BD2       0.104000
     60 H27          1.9890    -4.1440   -10.0880 ha         1 BD2       0.115000
     61 H28          1.5310    -3.2240    -7.7430 ho         1 BD2       0.410000
@<TRIPOS>BOND
     1     1     2 1   
     2     1    36 1   
     3     2     3 ar  
     4     2     7 ar  
     5     3     4 ar  
     6     3    37 1   
     7     4     5 ar  
     8     4    38 1   
     9     5     6 ar  
    10     5     8 1   
    11     6     7 ar  
    12     6    39 1   
    13     7    40 1   
    14     8     9 2   
    15     8    10 1   
    16    10    11 1   
    17    10    41 1   
    18    11    12 1   
    19    11    17 1   
    20    11    42 1   
    21    12    13 1   
    22    12    18 1   
    23    12    43 1   
    24    13    14 1   
    25    13    44 1   
    26    13    45 1   
    27    14    15 1   
    28    14    46 1   
    29    14    47 1   
    30    15    16 1   
    31    15    48 1   
    32    15    49 1   
    33    16    17 1   
    34    16    50 1   
    35    17    51 1   
    36    17    52 1   
    37    18    19 1   
    38    19    20 2   
    39    19    21 1   
    40    21    22 ar  
    41    21    26 ar  
    42    22    23 ar  
    43    22    53 1   
    44    23    24 ar  
    45    23    54 1   
    46    24    25 ar  
    47    24    27 1   
    48    25    26 ar  
    49    25    55 1   
    50    26    56 1   
    51    27    28 2   
    52    27    29 1   
    53    29    30 ar  
    54    29    34 ar  
    55    30    31 ar  
    56    30    57 1   
    57    31    32 ar  
    58    31    58 1   
    59    32    33 ar  
    60    32    59 1   
    61    33    34 ar  
    62    33    60 1   
    63    34    35 1   
    64    35    61 1   
@<TRIPOS>SUBSTRUCTURE
     1 BD2         1 TEMP              0 ****  ****    0 ROOT
