@<TRIPOS>MOLECULE
BD3
   64    63     1     0     0
SMALL
bcc


@<TRIPOS>ATOM
      1 C1         -1.4070   -1.2020   -0.0270 c2        1 BD3     -0.142000
      2 C2         -0.9420   -2.4530    0.1330 c2        1 BD3     -0.121000
      3 C3         -1.6320   -0.2910    1.0850 c2        1 BD3     -0.150000
      4 C4          1.0470   -1.5400    1.1890 c1        1 BD3      0.241000
      5 C5         -0.6440    0.0920    1.9280 c2        1 BD3      0.075000
      6 C6          0.6860   -0.4730    1.8910 c2        1 BD3     -0.462000
      7 C7         -0.8890    1.1880    2.8500 c2        1 BD3     -0.003000
      8 N13         0.4350    3.1270    8.5180 n2        1 BD3     -0.298000
      9 C15        -1.3630    0.8000   -1.5800 c3        1 BD3      0.030000
     10 C18        -2.7760    3.7300    0.3420 c2        1 BD3     -0.149000
     11 C23        -0.6160    2.8160   -4.7070 c2        1 BD3     -0.382000
     12 C24        -0.3810    2.4040   -5.9600 c1        1 BD3      0.173000
     13 C32        -6.4060    3.1680    2.5350 cx        1 BD3     -0.187000
     14 C33        -5.4350    5.1520    3.8880 c3        1 BD3     -0.196000
     15 C34        -5.1620    2.6710    3.2030 cx        1 BD3     -0.187000
     16 N25         0.0090    2.2100   -7.0820 n2        1 BD3     -0.124000
     17 C20        -1.2670    1.0430   -3.1050 c2        1 BD3      0.216000
     18 O21        -1.9130    0.4770   -3.9680 o         1 BD3     -0.144000
     19 N16        -2.2930    1.7370   -0.9940 n         1 BD3     -0.349000
     20 C29        -4.1230    3.6100    0.5640 c2        1 BD3     -0.042000
     21 C28        -4.4960    4.6440    1.6190 c3        1 BD3     -0.080000
     22 N27        -3.1860    5.2810    1.9530 n2        1 BD3      0.125000
     23 N26        -2.2800    4.7930    1.2320 n3        1 BD3      0.110000
     24 C14        -1.7590   -0.6800   -1.3810 c3        1 BD3     -0.132000
     25 O11        -0.3340    1.2040    4.1360 os        1 BD3     -0.097000
     26 C10        -0.7350    2.4320    4.6660 c2        1 BD3     -0.045000
     27 N9         -1.4650    3.0890    3.7480 n2        1 BD3     -0.166000
     28 N8         -1.5650    2.3410    2.6570 n2        1 BD3     -0.187000
     29 H2         -0.7920   -2.9120    1.1260 ha        1 BD3      0.157000
     30 H3         -2.6590    0.0920    1.2070 ha        1 BD3      0.142000
     31 H4         -0.7450   -3.1230   -0.7160 ha        1 BD3      0.157000
     32 H6          1.4540    0.0080    2.5370 ha        1 BD3      0.216000
     33 H12        -0.4080    2.6670    5.7270 h5        1 BD3      0.331000
     34 HN13        0.7100    3.2550    9.4420 hn        1 BD3      0.309000
     35 H15        -0.3340    0.9580   -1.1280 h1        1 BD3      0.149000
     36 HN22        0.6480    1.5800   -3.6890 hn        1 BD3      0.270000
     37 H23         1.0020   -1.1740   -3.5710 ha        1 BD3      0.001500
     38 H23A       -1.1270    3.7780   -4.5230 hx        1 BD3      0.223000
     39 H24         0.6030   -0.6460   -3.4150 ha        1 BD3      0.001500
     40 H30        -0.6700    5.9230    2.0710 h1        1 BD3      0.161333
     41 H30A       -0.2320    4.3020    1.3070 h1        1 BD3      0.161333
     42 H30B       -0.6860    5.7200    0.2280 h1        1 BD3      0.161333
     43 H32        -6.6260    2.8620    1.4960 hc        1 BD3      0.130500
     44 H32A       -7.1250    1.6730   -0.6040 ha        1 BD3      0.001500
     45 H32B       -6.4600    1.7980   -0.5650 ha        1 BD3      0.001500
     46 H33        -4.4700    5.3270    4.4250 hc        1 BD3      0.105333
     47 H33A       -5.7930    6.1220    3.4620 hc        1 BD3      0.105333
     48 H33B       -6.1890    4.8000    4.6360 hc        1 BD3      0.105333
     49 H34        -4.4760    2.0090    2.6460 hc        1 BD3      0.130500
     50 H34A       -5.1870    2.4200    4.2820 hc        1 BD3      0.130500
     51 H34B       -7.3340    3.2830    3.1290 hc        1 BD3      0.130500
     52 HN25       -0.3580    1.7680   -7.8920 hn        1 BD3      0.315000
     53 HN16       -4.8560    2.9440    0.1010 ha        1 BD3      0.220000
     54 H29        -5.1270    5.4740    1.1510 h1        1 BD3      0.222000
     55 H14        -2.8610   -0.8160   -1.5620 hc        1 BD3      0.132000
     56 H14A       -1.2230   -1.2850   -2.1670 hc        1 BD3      0.132000
     57 C12         0.1050    2.9700    7.4050 c1        1 BD3      0.040000
     58 C17        -1.8670    2.9760   -0.5510 c2        1 BD3      0.398000
     59 N22        -0.2420    2.0730   -3.5310 n4        1 BD3     -0.007000
     60 C30        -0.8750    5.2190    1.2180 c3        1 BD3     -0.103000
     61 C31        -5.2670    4.1260    2.8130 cx        1 BD3     -0.106000
     62 O19        -0.7770    3.4510   -0.9400 o         1 BD3     -0.384000
     63 H162       -3.1350    1.3480   -0.6250 hn        1 BD3      0.260000
     64 H222       -0.1070    2.7520   -2.7600 hn        1 BD3      0.270000
@<TRIPOS>BOND
     1    1    2 1   
     2    1    3 1   
     3    1   24 1   
     4    2   29 1   
     5    2   31 1   
     6    3    5 1   
     7    3   30 1   
     8    4    6 1   
     9    5    6 1   
    10    5    7 1   
    11    6   32 1   
    12    7   25 1   
    13    7   28 1   
    14    8   34 1   
    15    8   57 1   
    16    9   17 1   
    17    9   19 1   
    18    9   24 1   
    19    9   35 1   
    20   10   20 1   
    21   10   23 1   
    22   10   58 1   
    23   11   12 1   
    24   11   38 1   
    25   11   59 1   
    26   12   16 1   
    27   13   15 1   
    28   13   43 1   
    29   13   51 1   
    30   13   61 1   
    31   14   46 1   
    32   14   47 1   
    33   14   48 1   
    34   14   61 1   
    35   15   49 1   
    36   15   50 1   
    37   15   61 1   
    38   16   52 1   
    39   17   18 1   
    40   17   59 1   
    41   19   58 1   
    42   19   63 1   
    43   20   21 1   
    44   20   53 1   
    45   21   22 1   
    46   21   54 1   
    47   21   61 1   
    48   22   23 1   
    49   23   60 1   
    50   24   55 1   
    51   24   56 1   
    52   25   26 1   
    53   26   27 1   
    54   26   33 1   
    55   27   28 1   
    56   36   59 1   
    57   37   39 1   
    58   40   60 1   
    59   41   60 1   
    60   42   60 1   
    61   44   45 1   
    62   58   62 1   
    63   59   64 1   
@<TRIPOS>SUBSTRUCTURE
     1 BD3         1 TEMP              0 ****  ****    0 ROOT
