@<TRIPOS>MOLECULE
BD4
   44    47     1     0     0
SMALL
bcc


@<TRIPOS>ATOM
      1 O23          0.0000     0.0000     0.0000 o          1 BD4      -0.603500
      2 C20          1.2140     0.0000     0.0000 c          1 BD4       0.647100
      3 N21          2.0000     0.0000     1.0920 ns         1 BD4      -0.158500
      4 C22          3.3010    -0.0010     0.7500 c          1 BD4       0.642100
      5 O24          4.2370    -0.0010     1.5250 o          1 BD4      -0.611500
      6 C13          3.4010    -0.0020    -0.7220 ca         1 BD4      -0.090600
      7 C12          2.0750    -0.0020    -1.1990 ca         1 BD4      -0.196600
      8 C11          1.8310    -0.0030    -2.5670 ca         1 BD4       0.020700
      9 C15          0.4110    -0.0040    -3.0740 c3         1 BD4       0.053200
     10 C10          2.8810    -0.0060    -3.4640 ca         1 BD4      -0.154000
     11 C8           4.1970    -0.0060    -3.0140 ca         1 BD4      -0.140200
     12 C9           4.4610    -0.0040    -1.6290 cp         1 BD4      -0.006000
     13 C5           5.9260    -0.0040    -1.4840 cp         1 BD4      -0.069000
     14 C6           6.7810    -0.0090    -0.3840 ca         1 BD4      -0.024000
     15 C1           8.1460    -0.0060    -0.5780 ca         1 BD4      -0.102300
     16 C14          9.0720    -0.0060     0.6110 c3         1 BD4       0.065200
     17 C2           8.6700    -0.0080    -1.8610 ca         1 BD4      -0.055000
     18 C3           7.8350    -0.0080    -2.9590 ca         1 BD4      -0.134000
     19 C4           6.4550    -0.0070    -2.7850 ca         1 BD4      -0.185200
     20 N7           5.4040    -0.0070    -3.6840 na         1 BD4       0.347700
     21 C16          5.5500    -0.0100    -5.1410 c3         1 BD4      -0.009700
     22 C17          5.6000    -1.4530    -5.6460 c3         1 BD4      -0.069400
     23 C18          5.7530    -1.4560    -7.1680 c3         1 BD4      -0.047200
     24 N19          5.8020    -2.8430    -7.6540 nz         1 BD4       0.086400
     25 H21          1.6610     0.0010     2.0340 hn         1 BD4       0.209500
     26 H151        -0.0970     0.8870    -2.7270 hc         1 BD4       0.021033
     27 H152         0.4150    -0.0190    -4.1570 hc         1 BD4       0.021033
     28 H153        -0.1040    -0.8820    -2.7030 hc         1 BD4       0.021033
     29 H10          2.5300     0.1270    -4.4800 ha         1 BD4       0.112000
     30 H6           6.3760    -0.1070     0.6160 ha         1 BD4       0.145000
     31 H141        10.0600     0.3130     0.2990 hc         1 BD4       0.014033
     32 H142         9.1300    -1.0050     1.0240 hc         1 BD4       0.014033
     33 H143         8.6940     0.6750     1.3630 hc         1 BD4       0.014033
     34 H2           9.7440    -0.0050    -2.0030 ha         1 BD4       0.112000
     35 H3           8.2550    -0.0100    -3.9580 ha         1 BD4       0.091000
     36 H161         4.7060     0.5000    -5.5900 h1         1 BD4       0.041200
     37 H162         6.4660     0.5000    -5.4140 h1         1 BD4       0.041200
     38 H171         4.6840    -1.9630    -5.3750 hc         1 BD4       0.045200
     39 H172         6.4440    -1.9640    -5.1980 hc         1 BD4       0.045200
     40 H181         6.6700    -0.9460    -7.4400 hx         1 BD4       0.085700
     41 H182         4.9090    -0.9460    -7.6170 hx         1 BD4       0.085700
     42 H191         6.5960    -3.3070    -7.2600 hn         1 BD4       0.225133
     43 H192         4.9660    -3.3210    -7.3810 hn         1 BD4       0.225133
     44 H193         5.8760    -2.8440    -8.6520 hn         1 BD4       0.225133
@<TRIPOS>BOND
     1     1     2 2   
     2     2     3 1   
     3     2     7 1   
     4     3     4 1   
     5     3    25 1   
     6     4     5 2   
     7     4     6 1   
     8     6     7 ar  
     9     6    12 ar  
    10     7     8 ar  
    11     8     9 1   
    12     8    10 ar  
    13     9    26 1   
    14     9    27 1   
    15     9    28 1   
    16    10    11 ar  
    17    10    29 1   
    18    11    12 ar  
    19    11    20 1   
    20    12    13 1   
    21    13    14 ar  
    22    13    19 ar  
    23    14    15 ar  
    24    14    30 1   
    25    15    16 1   
    26    15    17 ar  
    27    16    31 1   
    28    16    32 1   
    29    16    33 1   
    30    17    18 ar  
    31    17    34 1   
    32    18    19 ar  
    33    18    35 1   
    34    19    20 1   
    35    20    21 1   
    36    21    22 1   
    37    21    36 1   
    38    21    37 1   
    39    22    23 1   
    40    22    38 1   
    41    22    39 1   
    42    23    24 1   
    43    23    40 1   
    44    23    41 1   
    45    24    42 1   
    46    24    43 1   
    47    24    44 1   
@<TRIPOS>SUBSTRUCTURE
     1 BD4         1 TEMP              0 ****  ****    0 ROOT
