@<TRIPOS>MOLECULE
BD5
   80    83     1     0     0
SMALL
bcc


@<TRIPOS>ATOM
      1 C43          0.0000     0.0000     0.0000 ca         1 BD5      -0.084500
      2 C42          1.3820     0.0000     0.0000 ca         1 BD5      -0.140500
      3 C41          2.0750     0.0000     1.2020 ca         1 BD5       0.097100
      4 O44          3.4330     0.0000     1.2040 oh         1 BD5      -0.504100
      5 C40          1.3780     0.0000     2.4010 ca         1 BD5      -0.140500
      6 C39         -0.0040     0.0010     2.3960 ca         1 BD5      -0.084500
      7 C38         -0.6920     0.0000     1.1970 ca         1 BD5      -0.085300
      8 C37         -2.1990     0.0020     1.1950 c3         1 BD5       0.028900
      9 C35         -2.7100    -1.4410     1.1930 c3         1 BD5      -0.099300
     10 C36         -4.2120    -1.4410     1.3150 c          1 BD5       0.975600
     11 O45         -4.7990    -0.8900     2.3880 o          1 BD5      -0.885300
     12 O46         -4.8880    -1.9390     0.4450 o          1 BD5      -0.885300
     13 N33         -2.3200    -2.0970    -0.0580 ns         1 BD5      -0.117900
     14 C32         -2.1940    -3.4370    -0.1040 c          1 BD5       0.562100
     15 O34         -2.4030    -4.1020     0.8890 o          1 BD5      -0.665100
     16 C24         -1.7940    -4.1110    -1.3910 c3         1 BD5      -0.061300
     17 C25         -2.8290    -3.7990    -2.4750 c3         1 BD5       0.014900
     18 C26         -2.3660    -4.3700    -3.7910 ca         1 BD5      -0.061300
     19 C31         -2.7210    -5.6570    -4.1480 ca         1 BD5      -0.095000
     20 C30         -2.2970    -6.1800    -5.3550 ca         1 BD5      -0.098500
     21 C29         -1.5190    -5.4160    -6.2050 ca         1 BD5      -0.110000
     22 C28         -1.1650    -4.1290    -5.8470 ca         1 BD5      -0.098500
     23 C27         -1.5920    -3.6040    -4.6430 ca         1 BD5      -0.095000
     24 N22         -1.7270    -5.5600    -1.1840 ns         1 BD5      -0.143900
     25 C21         -0.9390    -6.3180    -1.9720 c          1 BD5       0.553100
     26 O23         -0.2870    -5.8010    -2.8540 o          1 BD5      -0.664100
     27 C12         -0.8710    -7.8080    -1.7580 c3         1 BD5      -0.041300
     28 C13         -2.2650    -8.4140    -1.9360 c3         1 BD5       0.010900
     29 C14         -2.2200    -9.8830    -1.6020 ca         1 BD5      -0.086300
     30 C19         -2.4540   -10.3040    -0.3050 ca         1 BD5      -0.068500
     31 C18         -2.4130   -11.6500     0.0020 ca         1 BD5      -0.131000
     32 C17         -2.1370   -12.5800    -0.9890 ca         1 BD5       0.117100
     33 O20         -2.0970   -13.9040    -0.6880 oh         1 BD5      -0.504100
     34 C16         -1.9040   -12.1550    -2.2890 ca         1 BD5      -0.131000
     35 C15         -1.9500   -10.8080    -2.5930 ca         1 BD5      -0.068500
     36 N10          0.0460    -8.4000    -2.7360 ns         1 BD5      -0.150900
     37 C9           0.6610    -9.5680    -2.4620 c          1 BD5       0.670100
     38 O11          0.4540   -10.1310    -1.4060 o          1 BD5      -0.661000
     39 O8           1.5030   -10.1120    -3.3610 os         1 BD5      -0.421900
     40 C7           2.1300   -11.3710    -2.9990 c3         1 BD5       0.295700
     41 C3           3.0320   -11.8230    -4.1180 ca         1 BD5      -0.109300
     42 C2           4.3580   -11.4340    -4.1360 ca         1 BD5      -0.074500
     43 C1           5.1870   -11.8490    -5.1620 ca         1 BD5      -0.109500
     44 C6           4.6890   -12.6520    -6.1710 ca         1 BD5      -0.098000
     45 C5           3.3620   -13.0410    -6.1530 ca         1 BD5      -0.109500
     46 C4           2.5350   -12.6300    -5.1240 ca         1 BD5      -0.074500
     47 H43         -0.5410     0.0500    -0.9370 ha         1 BD5       0.110000
     48 H42          1.9230     0.0350    -0.9370 ha         1 BD5       0.105000
     49 HO44         3.7480     0.8890     1.2110 ho         1 BD5       0.391000
     50 H40          1.9160    -0.0250     3.3400 ha         1 BD5       0.105000
     51 H39         -0.5480     0.0260     3.3330 ha         1 BD5       0.110000
     52 H37         -2.5580     0.5130     0.3100 hc         1 BD5       0.036200
     53 H37A        -2.5600     0.5120     2.0790 hc         1 BD5       0.036200
     54 H35         -2.2800    -1.9770     2.0310 h1         1 BD5       0.061700
     55 HN33        -2.1860    -1.5520    -0.8870 hn         1 BD5       0.157500
     56 H24         -0.8230    -3.7460    -1.7030 h1         1 BD5       0.060700
     57 H25         -3.7800    -4.2410    -2.2040 hc         1 BD5       0.039700
     58 H25A        -2.9420    -2.7250    -2.5670 hc         1 BD5       0.039700
     59 H31         -3.3310    -6.2560    -3.4830 ha         1 BD5       0.103000
     60 H30         -2.5750    -7.1890    -5.6350 ha         1 BD5       0.092000
     61 H29         -1.1850    -5.8270    -7.1500 ha         1 BD5       0.092000
     62 H28         -0.5570    -3.5300    -6.5140 ha         1 BD5       0.092000
     63 H27         -1.3140    -2.5950    -4.3630 ha         1 BD5       0.103000
     64 HN22        -2.2360    -5.9820    -0.4330 hn         1 BD5       0.203500
     65 H12         -0.5130    -8.0130    -0.7570 h1         1 BD5       0.072700
     66 H13         -2.5860    -8.2860    -2.9620 hc         1 BD5       0.031700
     67 H13A        -2.9620    -7.9140    -1.2740 hc         1 BD5       0.031700
     68 H19         -2.6700    -9.5770     0.4690 ha         1 BD5       0.105000
     69 H18         -2.5960   -11.9800     1.0180 ha         1 BD5       0.106000
     70 HO20        -2.9560   -14.2770    -0.7970 ho         1 BD5       0.393000
     71 H16         -1.6900   -12.8790    -3.0660 ha         1 BD5       0.106000
     72 H15         -1.7680   -10.4750    -3.6080 ha         1 BD5       0.105000
     73 HN10         0.2540    -7.9130    -3.5860 hn         1 BD5       0.201500
     74 H7           1.3650   -12.1190    -2.8280 h1         1 BD5       0.016700
     75 H7A          2.7130   -11.2380    -2.0960 h1         1 BD5       0.016700
     76 H2           4.7490   -10.8050    -3.3450 ha         1 BD5       0.107500
     77 H1           6.2260   -11.5440    -5.1760 ha         1 BD5       0.100500
     78 H6           5.3370   -12.9760    -6.9760 ha         1 BD5       0.098000
     79 H5           2.9720   -13.6720    -6.9420 ha         1 BD5       0.100500
     80 H4           1.4960   -12.9350    -5.1100 ha         1 BD5       0.107500
@<TRIPOS>BOND
     1     1     2 ar  
     2     1     7 ar  
     3     1    47 1   
     4     2     3 ar  
     5     2    48 1   
     6     3     4 1   
     7     3     5 ar  
     8     4    49 1   
     9     5     6 ar  
    10     5    50 1   
    11     6     7 ar  
    12     6    51 1   
    13     7     8 1   
    14     8     9 1   
    15     8    52 1   
    16     8    53 1   
    17     9    10 1   
    18     9    13 1   
    19     9    54 1   
    20    10    11 1   
    21    10    12 1   
    22    13    14 1   
    23    13    55 1   
    24    14    15 2   
    25    14    16 1   
    26    16    17 1   
    27    16    24 1   
    28    16    56 1   
    29    17    18 1   
    30    17    57 1   
    31    17    58 1   
    32    18    19 ar  
    33    18    23 ar  
    34    19    20 ar  
    35    19    59 1   
    36    20    21 ar  
    37    20    60 1   
    38    21    22 ar  
    39    21    61 1   
    40    22    23 ar  
    41    22    62 1   
    42    23    63 1   
    43    24    25 1   
    44    24    64 1   
    45    25    26 2   
    46    25    27 1   
    47    27    28 1   
    48    27    36 1   
    49    27    65 1   
    50    28    29 1   
    51    28    66 1   
    52    28    67 1   
    53    29    30 ar  
    54    29    35 ar  
    55    30    31 ar  
    56    30    68 1   
    57    31    32 ar  
    58    31    69 1   
    59    32    33 1   
    60    32    34 ar  
    61    33    70 1   
    62    34    35 ar  
    63    34    71 1   
    64    35    72 1   
    65    36    37 1   
    66    36    73 1   
    67    37    38 2   
    68    37    39 1   
    69    39    40 1   
    70    40    41 1   
    71    40    74 1   
    72    40    75 1   
    73    41    42 ar  
    74    41    46 ar  
    75    42    43 ar  
    76    42    76 1   
    77    43    44 ar  
    78    43    77 1   
    79    44    45 ar  
    80    44    78 1   
    81    45    46 ar  
    82    45    79 1   
    83    46    80 1   
@<TRIPOS>SUBSTRUCTURE
     1 BD5         1 TEMP              0 ****  ****    0 ROOT
