@<TRIPOS>MOLECULE
molecule
   85    89     1     0     0
SMALL
bcc


@<TRIPOS>ATOM
      1 CD2          0.0000     0.0000     0.0000 ca         1 BD6      -0.094800
      2 CE3          1.3960     0.0000     0.0000 ca         1 BD6      -0.094000
      3 CZ3          2.0740     0.0000     1.1860 ca         1 BD6      -0.175000
      4 CH2          1.3860    -0.0010     2.3910 ca         1 BD6      -0.117000
      5 CZ2          0.0090    -0.0020     2.4140 ca         1 BD6      -0.122000
      6 CE2         -0.7020    -0.0010     1.2190 ca         1 BD6      -0.029200
      7 NE1         -2.0450    -0.0010     0.9150 na         1 BD6      -0.173400
      8 CD1         -2.2140     0.0010    -0.4430 cc         1 BD6      -0.080100
      9 CG          -1.0180     0.0050    -1.0530 cd         1 BD6      -0.170400
     10 CB          -0.7700     0.0140    -2.5390 c3         1 BD6      -0.010200
     11 CA          -0.6660    -1.4260    -3.0470 c3         1 BD6       0.059700
     12 C           -0.5870    -1.4230    -4.5530 c          1 BD6       0.654100
     13 O            0.3800    -1.8970    -5.1100 o          1 BD6      -0.566100
     14 NBC         -1.5910    -0.8940    -5.2790 ns         1 BD6      -0.472400
     15 OAF         -1.5170    -0.8900    -6.6930 oh         1 BD6      -0.360100
     16 N            0.5380    -2.0520    -2.4960 ns         1 BD6      -0.556900
     17 CBK          0.6400    -3.3940    -2.4530 c          1 BD6       0.650100
     18 OAD         -0.2940    -4.0850    -2.8030 o          1 BD6      -0.586100
     19 CBU          1.9140    -4.0380    -1.9690 c3         1 BD6       0.028700
     20 CAZ          3.0820    -3.5770    -2.8420 c3         1 BD6      -0.046100
     21 CBN          4.3760    -4.0820    -2.2570 ca         1 BD6      -0.097300
     22 CAQ          4.8930    -5.2950    -2.6710 ca         1 BD6      -0.123500
     23 CAK          6.0800    -5.7600    -2.1350 ca         1 BD6      -0.122000
     24 CAH          6.7500    -5.0100    -1.1860 ca         1 BD6      -0.124000
     25 CAL          6.2330    -3.7960    -0.7730 ca         1 BD6      -0.122000
     26 CAR          5.0490    -3.3300    -1.3130 ca         1 BD6      -0.123500
     27 NBV          1.7870    -5.4950    -2.0540 n          1 BD6      -0.461800
     28 CAA          1.6880    -6.1470    -3.3620 c3         1 BD6       0.103300
     29 CBL          1.7620    -6.2370    -0.9280 c          1 BD6       0.662100
     30 OAE          1.7570    -7.4470    -1.0000 o          1 BD6      -0.598100
     31 CBT          1.7400    -5.5610     0.4180 c3         1 BD6       0.063700
     32 CAY          3.0960    -4.9060     0.6840 c3         1 BD6      -0.029100
     33 CBO          3.0670    -4.2130     2.0200 cc         1 BD6      -0.224900
     34 CAV          3.3640    -4.7600     3.2150 cd         1 BD6       0.321200
     35 NBF          3.2170    -3.8120     4.1540 nd         1 BD6      -0.700000
     36 CAS          2.8380    -2.7000     3.5860 cc         1 BD6       0.399400
     37 NBB          2.7380    -2.9050     2.2550 na         1 BD6      -0.285900
     38 NBD          1.4660    -6.5560     1.4590 ns         1 BD6      -0.557900
     39 CBI          0.9090    -6.1740     2.6260 c          1 BD6       0.755100
     40 OAB          0.6340    -5.0050     2.8140 o          1 BD6      -0.616000
     41 OBH          0.6570    -7.0880     3.5810 os         1 BD6      -0.431900
     42 CAX          0.0560    -6.6050     4.8130 c3         1 BD6       0.214700
     43 CBM         -0.1500    -7.7610     5.7570 ca         1 BD6      -0.099300
     44 CAO          0.8450    -8.1100     6.6510 ca         1 BD6      -0.102000
     45 CAI          0.6560    -9.1690     7.5180 ca         1 BD6      -0.134500
     46 CAG         -0.5280    -9.8810     7.4910 ca         1 BD6      -0.118000
     47 CAJ         -1.5240    -9.5340     6.5970 ca         1 BD6      -0.134500
     48 CAP         -1.3360    -8.4700     5.7340 ca         1 BD6      -0.102000
     49 HE3          1.9390     0.0010    -0.9370 ha         1 BD6       0.122000
     50 HZ3          3.1570     0.0010     1.1860 ha         1 BD6       0.132000
     51 HH2          1.9380    -0.0010     3.3230 ha         1 BD6       0.136000
     52 HZ2         -0.5190    -0.0030     3.3600 ha         1 BD6       0.136000
     53 HNE1        -2.7870    -0.0040     1.5860 hn         1 BD6       0.304700
     54 HD1         -3.1710    -0.0000    -0.9500 h4         1 BD6       0.167000
     55 HB           0.1540     0.5380    -2.7480 hc         1 BD6       0.058700
     56 HBA         -1.5910     0.5150    -3.0390 hc         1 BD6       0.058700
     57 HA          -1.5400    -1.9840    -2.7330 h1         1 BD6       0.098700
     58 HNBC        -2.4080    -0.5410    -4.8200 hn         1 BD6       0.316500
     59 HOAF        -2.2900    -0.4830    -7.0470 ho         1 BD6       0.399000
     60 HN           1.3030    -1.4830    -2.1910 hn         1 BD6       0.321500
     61 HBU          2.0950    -3.7510    -0.9410 h1         1 BD6       0.090700
     62 HAZ          3.1010    -2.4940    -2.8780 hc         1 BD6       0.069200
     63 HAZA         2.9620    -3.9690    -3.8440 hc         1 BD6       0.069200
     64 HAQ          4.3680    -5.8820    -3.4140 ha         1 BD6       0.129500
     65 HAK          6.4850    -6.7110    -2.4590 ha         1 BD6       0.134500
     66 HAH          7.6790    -5.3740    -0.7650 ha         1 BD6       0.134000
     67 HAL          6.7590    -3.2080    -0.0310 ha         1 BD6       0.134500
     68 HAR          4.6440    -2.3790    -0.9890 ha         1 BD6       0.129500
     69 HAA          2.3400    -7.0120    -3.3850 h1         1 BD6       0.052033
     70 HAAA         0.6650    -6.4610    -3.5330 h1         1 BD6       0.052033
     71 HAAB         1.9850    -5.4500    -4.1360 h1         1 BD6       0.052033
     72 HBT          0.9650    -4.8040     0.4290 h1         1 BD6       0.093700
     73 HAY          3.3060    -4.1820    -0.0940 hc         1 BD6       0.070700
     74 HAYA         3.8690    -5.6650     0.6880 hc         1 BD6       0.070700
     75 HAV          3.6700    -5.7850     3.3880 h4         1 BD6       0.038100
     76 HAS          2.6430    -1.7650     4.0970 h5         1 BD6       0.056100
     77 HNBB         2.4680    -2.2280     1.5680 hn         1 BD6       0.297700
     78 HNBD         1.6620    -7.5230     1.2900 hn         1 BD6       0.346500
     79 HAX         -0.8990    -6.1440     4.5920 h1         1 BD6       0.059700
     80 HAXA         0.7120    -5.8760     5.2730 h1         1 BD6       0.059700
     81 HAO          1.7740    -7.5520     6.6730 ha         1 BD6       0.136000
     82 HAI          1.4360    -9.4420     8.2180 ha         1 BD6       0.130500
     83 HAG         -0.6750   -10.7130     8.1690 ha         1 BD6       0.129000
     84 HAJ         -2.4530   -10.0900     6.5770 ha         1 BD6       0.130500
     85 HAP         -2.1160    -8.1980     5.0330 ha         1 BD6       0.136000
@<TRIPOS>BOND
     1     1     2 ar
     2     1     6 ar
     3     1     9 1
     4     2     3 ar
     5     3     4 ar
     6     4     5 ar
     7     5     6 ar
     8     6     7 1
     9     7     8 1
    10     8     9 2
    11     9    10 1
    12    10    11 1
    13    11    12 1
    14    11    16 1
    15    12    13 2
    16    12    14 1
    17    14    15 1
    18    16    17 1
    19    17    18 2
    20    17    19 1
    21    19    20 1
    22    19    27 1
    23    20    21 1
    24    21    22 ar
    25    21    26 ar
    26    22    23 ar
    27    23    24 ar
    28    24    25 ar
    29    25    26 ar
    30    27    28 1
    31    27    29 1
    32    29    30 2
    33    29    31 1
    34    31    32 1
    35    31    38 1
    36    32    33 1
    37    33    34 2
    38    33    37 1
    39    34    35 1
    40    35    36 2
    41    36    37 1
    42    38    39 1
    43    39    40 2
    44    39    41 1
    45    41    42 1
    46    42    43 1
    47    43    44 ar
    48    43    48 ar
    49    44    45 ar
    50    45    46 ar
    51    46    47 ar
    52    47    48 ar
    53     2    49 1
    54     3    50 1
    55     4    51 1
    56     5    52 1
    57     7    53 1
    58     8    54 1
    59    10    55 1
    60    10    56 1
    61    11    57 1
    62    14    58 1
    63    15    59 1
    64    16    60 1
    65    19    61 1
    66    20    62 1
    67    20    63 1
    68    22    64 1
    69    23    65 1
    70    24    66 1
    71    25    67 1
    72    26    68 1
    73    28    69 1
    74    28    70 1
    75    28    71 1
    76    31    72 1
    77    32    73 1
    78    32    74 1
    79    34    75 1
    80    36    76 1
    81    37    77 1
    82    38    78 1
    83    42    79 1
    84    42    80 1
    85    44    81 1
    86    45    82 1
    87    46    83 1
    88    47    84 1
    89    48    85 1
@<TRIPOS>SUBSTRUCTURE
     1 BD6         1 TEMP              0 ****  ****    0 ROOT
