@<TRIPOS>MOLECULE
BD6
   85    89     1     0     0
SMALL
bcc


@<TRIPOS>ATOM
      1 CD2          0.0000     0.0000     0.0000 ca         1 BD6      -0.094800
      2 CE3          1.3960     0.0000     0.0000 ca         1 BD6      -0.062000
      3 CZ3          2.0740     0.0000     1.1860 ca         1 BD6      -0.147000
      4 CH2          1.3860    -0.0010     2.3910 ca         1 BD6      -0.102000
      5 CZ2          0.0090    -0.0020     2.4140 ca         1 BD6      -0.075000
      6 CE2         -0.7020    -0.0010     1.2190 ca         1 BD6      -0.220200
      7 NE1         -2.0450    -0.0010     0.9150 na         1 BD6       0.372600
      8 CD1         -2.2140     0.0010    -0.4430 cc         1 BD6      -0.246100
      9 CG          -1.0180     0.0050    -1.0530 cd         1 BD6      -0.174400
     10 CB          -0.7700     0.0140    -2.5390 c3         1 BD6       0.066800
     11 CA          -0.6660    -1.4260    -3.0470 c3         1 BD6      -0.048300
     12 C           -0.5870    -1.4230    -4.5530 c          1 BD6       0.559100
     13 O            0.3800    -1.8970    -5.1100 o          1 BD6      -0.615100
     14 NBC         -1.5910    -0.8940    -5.2790 ns         1 BD6      -0.051400
     15 OAF         -1.5170    -0.8900    -6.6930 oh         1 BD6      -0.436100
     16 N            0.5380    -2.0520    -2.4960 ns         1 BD6      -0.157900
     17 CBK          0.6400    -3.3940    -2.4530 c          1 BD6       0.565100
     18 OAD         -0.2940    -4.0850    -2.8030 o          1 BD6      -0.636100
     19 CBU          1.9140    -4.0380    -1.9690 c3         1 BD6      -0.081300
     20 CAZ          3.0820    -3.5770    -2.8420 c3         1 BD6       0.013900
     21 CBN          4.3760    -4.0820    -2.2570 ca         1 BD6      -0.107300
     22 CAQ          4.8930    -5.2950    -2.6710 ca         1 BD6      -0.101500
     23 CAK          6.0800    -5.7600    -2.1350 ca         1 BD6      -0.091500
     24 CAH          6.7500    -5.0100    -1.1860 ca         1 BD6      -0.096000
     25 CAL          6.2330    -3.7960    -0.7730 ca         1 BD6      -0.091500
     26 CAR          5.0490    -3.3300    -1.3130 ca         1 BD6      -0.101500
     27 NBV          1.7870    -5.4950    -2.0540 n          1 BD6      -0.098800
     28 CAA          1.6880    -6.1470    -3.3620 c3         1 BD6       0.072300
     29 CBL          1.7620    -6.2370    -0.9280 c          1 BD6       0.580100
     30 OAE          1.7570    -7.4470    -1.0000 o          1 BD6      -0.642100
     31 CBT          1.7400    -5.5610     0.4180 c3         1 BD6      -0.048300
     32 CAY          3.0960    -4.9060     0.6840 c3         1 BD6       0.027900
     33 CBO          3.0670    -4.2130     2.0200 cc         1 BD6      -0.424900
     34 CAV          3.3640    -4.7600     3.2150 cd         1 BD6       0.326200
     35 NBF          3.2170    -3.8120     4.1540 nd         1 BD6      -0.620000
     36 CAS          2.8380    -2.7000     3.5860 cc         1 BD6       0.208400
     37 NBB          2.7380    -2.9050     2.2550 na         1 BD6       0.252100
     38 NBD          1.4660    -6.5560     1.4590 ns         1 BD6      -0.149900
     39 CBI          0.9090    -6.1740     2.6260 c          1 BD6       0.686100
     40 OAB          0.6340    -5.0050     2.8140 o          1 BD6      -0.678000
     41 OBH          0.6570    -7.0880     3.5810 os         1 BD6      -0.413900
     42 CAX          0.0560    -6.6050     4.8130 c3         1 BD6       0.296700
     43 CBM         -0.1500    -7.7610     5.7570 ca         1 BD6      -0.116300
     44 CAO          0.8450    -8.1100     6.6510 ca         1 BD6      -0.075000
     45 CAI          0.6560    -9.1690     7.5180 ca         1 BD6      -0.108500
     46 CAG         -0.5280    -9.8810     7.4910 ca         1 BD6      -0.093000
     47 CAJ         -1.5240    -9.5340     6.5970 ca         1 BD6      -0.108500
     48 CAP         -1.3360    -8.4700     5.7340 ca         1 BD6      -0.075000
     49 HE3          1.9390     0.0010    -0.9370 ha         1 BD6       0.099000
     50 HZ3          3.1570     0.0010     1.1860 ha         1 BD6       0.107000
     51 HH2          1.9380    -0.0010     3.3230 ha         1 BD6       0.111000
     52 HZ2         -0.5190    -0.0030     3.3600 ha         1 BD6       0.108000
     53 HNE1        -2.7870    -0.0040     1.5860 hn         1 BD6       0.119700
     54 HD1         -3.1710    -0.0000    -0.9500 h4         1 BD6       0.141000
     55 HB           0.1540     0.5380    -2.7480 hc         1 BD6       0.023700
     56 HBA         -1.5910     0.5150    -3.0390 hc         1 BD6       0.023700
     57 HA          -1.5400    -1.9840    -2.7330 h1         1 BD6       0.069700
     58 HNBC        -2.4080    -0.5410    -4.8200 hn         1 BD6       0.155500
     59 HOAF        -2.2900    -0.4830    -7.0470 ho         1 BD6       0.393000
     60 HN           1.3030    -1.4830    -2.1910 hn         1 BD6       0.183500
     61 HBU          2.0950    -3.7510    -0.9410 h1         1 BD6       0.074700
     62 HAZ          3.1010    -2.4940    -2.8780 hc         1 BD6       0.041200
     63 HAZA         2.9620    -3.9690    -3.8440 hc         1 BD6       0.041200
     64 HAQ          4.3680    -5.8820    -3.4140 ha         1 BD6       0.107500
     65 HAK          6.4850    -6.7110    -2.4590 ha         1 BD6       0.107000
     66 HAH          7.6790    -5.3740    -0.7650 ha         1 BD6       0.106000
     67 HAL          6.7590    -3.2080    -0.0310 ha         1 BD6       0.107000
     68 HAR          4.6440    -2.3790    -0.9890 ha         1 BD6       0.107500
     69 HAA          2.3400    -7.0120    -3.3850 h1         1 BD6       0.024033
     70 HAAA         0.6650    -6.4610    -3.5330 h1         1 BD6       0.024033
     71 HAAB         1.9850    -5.4500    -4.1360 h1         1 BD6       0.024033
     72 HBT          0.9650    -4.8040     0.4290 h1         1 BD6       0.064700
     73 HAY          3.3060    -4.1820    -0.0940 hc         1 BD6       0.044200
     74 HAYA         3.8690    -5.6650     0.6880 hc         1 BD6       0.044200
     75 HAV          3.6700    -5.7850     3.3880 h4         1 BD6       0.001100
     76 HAS          2.6430    -1.7650     4.0970 h5         1 BD6       0.019100
     77 HNBB         2.4680    -2.2280     1.5680 hn         1 BD6       0.128700
     78 HNBD         1.6620    -7.5230     1.2900 hn         1 BD6       0.202500
     79 HAX         -0.8990    -6.1440     4.5920 h1         1 BD6       0.017200
     80 HAXA         0.7120    -5.8760     5.2730 h1         1 BD6       0.017200
     81 HAO          1.7740    -7.5520     6.6730 ha         1 BD6       0.108000
     82 HAI          1.4360    -9.4420     8.2180 ha         1 BD6       0.102500
     83 HAG         -0.6750   -10.7130     8.1690 ha         1 BD6       0.100000
     84 HAJ         -2.4530   -10.0900     6.5770 ha         1 BD6       0.102500
     85 HAP         -2.1160    -8.1980     5.0330 ha         1 BD6       0.108000
@<TRIPOS>BOND
     1     1     2 ar  
     2     1     6 ar  
     3     1     9 1   
     4     2     3 ar  
     5     2    49 1   
     6     3     4 ar  
     7     3    50 1   
     8     4     5 ar  
     9     4    51 1   
    10     5     6 ar  
    11     5    52 1   
    12     6     7 1   
    13     7     8 1   
    14     7    53 1   
    15     8     9 2   
    16     8    54 1   
    17     9    10 1   
    18    10    11 1   
    19    10    55 1   
    20    10    56 1   
    21    11    12 1   
    22    11    16 1   
    23    11    57 1   
    24    12    13 2   
    25    12    14 1   
    26    14    15 1   
    27    14    58 1   
    28    15    59 1   
    29    16    17 1   
    30    16    60 1   
    31    17    18 2   
    32    17    19 1   
    33    19    20 1   
    34    19    27 1   
    35    19    61 1   
    36    20    21 1   
    37    20    62 1   
    38    20    63 1   
    39    21    22 ar  
    40    21    26 ar  
    41    22    23 ar  
    42    22    64 1   
    43    23    24 ar  
    44    23    65 1   
    45    24    25 ar  
    46    24    66 1   
    47    25    26 ar  
    48    25    67 1   
    49    26    68 1   
    50    27    28 1   
    51    27    29 1   
    52    28    69 1   
    53    28    70 1   
    54    28    71 1   
    55    29    30 2   
    56    29    31 1   
    57    31    32 1   
    58    31    38 1   
    59    31    72 1   
    60    32    33 1   
    61    32    73 1   
    62    32    74 1   
    63    33    34 2   
    64    33    37 1   
    65    34    35 1   
    66    34    75 1   
    67    35    36 2   
    68    36    37 1   
    69    36    76 1   
    70    37    77 1   
    71    38    39 1   
    72    38    78 1   
    73    39    40 2   
    74    39    41 1   
    75    41    42 1   
    76    42    43 1   
    77    42    79 1   
    78    42    80 1   
    79    43    44 ar  
    80    43    48 ar  
    81    44    45 ar  
    82    44    81 1   
    83    45    46 ar  
    84    45    82 1   
    85    46    47 ar  
    86    46    83 1   
    87    47    48 ar  
    88    47    84 1   
    89    48    85 1   
@<TRIPOS>SUBSTRUCTURE
     1 BD6         1 TEMP              0 ****  ****    0 ROOT
