@<TRIPOS>MOLECULE
BD7
   82    85     1     0     0
SMALL
bcc


@<TRIPOS>ATOM
      1 CD1          0.0000     0.0000     0.0000 ca         1 BD7      -0.075500
      2 CE1          1.3820     0.0000     0.0000 ca         1 BD7      -0.138000
      3 CZ           2.0740     0.0000     1.2010 ca         1 BD7       0.149100
      4 OH           3.4330     0.0000     1.2030 oh         1 BD7      -0.487100
      5 CE2          1.3770     0.0010     2.4010 ca         1 BD7      -0.138000
      6 CD2         -0.0040     0.0000     2.3970 ca         1 BD7      -0.075500
      7 CG          -0.6920     0.0010     1.1980 ca         1 BD7      -0.126300
      8 CB          -2.1990     0.0010     1.1950 c3         1 BD7       0.028900
      9 CA          -2.7100    -1.4410     1.1940 c3         1 BD7      -0.048300
     10 C           -4.2120    -1.4430     1.3150 c          1 BD7       0.559100
     11 O           -4.8900    -1.9410     0.4430 o          1 BD7      -0.613100
     12 NBC         -4.8010    -0.8890     2.3940 ns         1 BD7      -0.051400
     13 OAF         -6.2120    -0.8900     2.5080 oh         1 BD7      -0.435100
     14 N           -2.3200    -2.0960    -0.0570 ns         1 BD7      -0.158900
     15 CBJ         -2.1950    -3.4370    -0.1060 c          1 BD7       0.564100
     16 OAD         -2.4030    -4.1020     0.8880 o          1 BD7      -0.629100
     17 CBS         -1.7940    -4.1110    -1.3930 c3         1 BD7      -0.083300
     18 CBA         -2.8290    -3.7980    -2.4750 c3         1 BD7       0.014900
     19 CBN         -2.3480    -4.3320    -3.7990 ca         1 BD7      -0.108300
     20 CAP         -2.6990    -5.6070    -4.2000 ca         1 BD7      -0.102000
     21 CAL         -2.2580    -6.0970    -5.4150 ca         1 BD7      -0.090500
     22 CAI         -1.4640    -5.3110    -6.2300 ca         1 BD7      -0.095000
     23 CAM         -1.1140    -4.0350    -5.8300 ca         1 BD7      -0.090500
     24 CAQ         -1.5580    -3.5440    -4.6170 ca         1 BD7      -0.102000
     25 NBT         -1.7270    -5.5590    -1.1850 n          1 BD7      -0.099800
     26 CAA         -2.9500    -6.3180    -0.9130 c3         1 BD7       0.074300
     27 CBK         -0.5400    -6.1940    -1.2450 c          1 BD7       0.580100
     28 OAE         -0.4950    -7.4040    -1.1830 o          1 BD7      -0.640100
     29 CBR          0.7330    -5.4000    -1.3880 c3         1 BD7      -0.047300
     30 CAZ          0.7840    -4.7630    -2.7780 c3         1 BD7       0.023900
     31 CBP          1.9820    -3.8550    -2.8710 cc         1 BD7      -0.429900
     32 CAW          3.2400    -4.2160    -3.1880 cd         1 BD7       0.341200
     33 NBF          4.0070    -3.1160    -3.1630 nd         1 BD7      -0.611000
     34 CAV          3.2730    -2.0870    -2.8410 cc         1 BD7       0.213400
     35 NBB          2.0020    -2.5040    -2.6560 na         1 BD7       0.258100
     36 NBD          1.8850    -6.2880    -1.2160 ns         1 BD7      -0.152900
     37 CBH          3.0670    -5.7880    -0.8020 c          1 BD7       0.680100
     38 OAB          3.1760    -4.6000    -0.5720 o          1 BD7      -0.666000
     39 OBG          4.1250    -6.6050    -0.6440 os         1 BD7      -0.415900
     40 CAX          5.3650    -5.9970    -0.1960 c3         1 BD7       0.295700
     41 CBM          6.4310    -7.0570    -0.0760 ca         1 BD7      -0.116300
     42 CAN          7.2360    -7.3510    -1.1600 ca         1 BD7      -0.074500
     43 CAJ          8.2120    -8.3230    -1.0520 ca         1 BD7      -0.108500
     44 CAH          8.3840    -9.0010     0.1410 ca         1 BD7      -0.093000
     45 CAK          7.5780    -8.7050     1.2260 ca         1 BD7      -0.108500
     46 CAO          6.6040    -7.7300     1.1180 ca         1 BD7      -0.074500
     47 HD1         -0.5410     0.0000    -0.9380 ha         1 BD7       0.101000
     48 HE1          1.9240    -0.0000    -0.9380 ha         1 BD7       0.115000
     49 HOH          3.7470     0.8480     1.4730 ho         1 BD7       0.404000
     50 HE2          1.9160     0.0000     3.3410 ha         1 BD7       0.115000
     51 HD2         -0.5480     0.0010     3.3340 ha         1 BD7       0.101000
     52 HB          -2.5620     0.5120     2.0790 hc         1 BD7       0.027200
     53 HBA         -2.5590     0.5120     0.3100 hc         1 BD7       0.027200
     54 HA          -2.2800    -1.9770     2.0320 h1         1 BD7       0.074700
     55 HNBC        -4.2390    -0.5160     3.1340 hn         1 BD7       0.156500
     56 HOAF        -6.4620    -0.5000     3.3290 ho         1 BD7       0.394000
     57 HN          -2.1820    -1.5500    -0.8850 hn         1 BD7       0.177500
     58 HBS         -0.8230    -3.7450    -1.7040 h1         1 BD7       0.076700
     59 HBAA        -3.7720    -4.2650    -2.2190 hc         1 BD7       0.040200
     60 HBAB        -2.9650    -2.7250    -2.5460 hc         1 BD7       0.040200
     61 HAP         -3.3210    -6.2230    -3.5620 ha         1 BD7       0.106500
     62 HAL         -2.5330    -7.0960    -5.7290 ha         1 BD7       0.107000
     63 HAI         -1.1170    -5.6950    -7.1810 ha         1 BD7       0.107000
     64 HAM         -0.4930    -3.4180    -6.4690 ha         1 BD7       0.107000
     65 HAQ         -1.2830    -2.5450    -4.3040 ha         1 BD7       0.106500
     66 HAA         -2.9740    -7.2020    -1.5390 h1         1 BD7       0.023700
     67 HAAA        -3.8140    -5.7000    -1.1270 h1         1 BD7       0.023700
     68 HAAB        -2.9670    -6.6130     0.1290 h1         1 BD7       0.023700
     69 HBR          0.7610    -4.6230    -0.6340 h1         1 BD7       0.066700
     70 HAZ          0.8610    -5.5410    -3.5280 hc         1 BD7       0.044700
     71 HAZA        -0.1190    -4.1880    -2.9440 hc         1 BD7       0.044700
     72 HAW          3.5740    -5.2200    -3.4230 h4         1 BD7       0.001100
     73 HAV          3.6230    -1.0660    -2.7440 h5         1 BD7       0.018100
     74 HNBB         1.2210    -1.9320    -2.4020 hn         1 BD7       0.107700
     75 HNBD         1.7910    -7.2690    -1.3920 hn         1 BD7       0.201500
     76 HAX          5.6790    -5.2480    -0.9120 h1         1 BD7       0.019200
     77 HAXA         5.2100    -5.5300     0.7700 h1         1 BD7       0.019200
     78 HAN          7.1010    -6.8200    -2.0950 ha         1 BD7       0.108000
     79 HAJ          8.8430    -8.5540    -1.9010 ha         1 BD7       0.102000
     80 HAH          9.1480    -9.7640     0.2260 ha         1 BD7       0.100000
     81 HAK          7.7130    -9.2350     2.1610 ha         1 BD7       0.102000
     82 HAO          5.9730    -7.4990     1.9670 ha         1 BD7       0.108000
@<TRIPOS>BOND
     1     1     2 ar  
     2     1     7 ar  
     3     1    47 1   
     4     2     3 ar  
     5     2    48 1   
     6     3     4 1   
     7     3     5 ar  
     8     4    49 1   
     9     5     6 ar  
    10     5    50 1   
    11     6     7 ar  
    12     6    51 1   
    13     7     8 1   
    14     8     9 1   
    15     8    52 1   
    16     8    53 1   
    17     9    10 1   
    18     9    14 1   
    19     9    54 1   
    20    10    11 2   
    21    10    12 1   
    22    12    13 1   
    23    12    55 1   
    24    13    56 1   
    25    14    15 1   
    26    14    57 1   
    27    15    16 2   
    28    15    17 1   
    29    17    18 1   
    30    17    25 1   
    31    17    58 1   
    32    18    19 1   
    33    18    59 1   
    34    18    60 1   
    35    19    20 ar  
    36    19    24 ar  
    37    20    21 ar  
    38    20    61 1   
    39    21    22 ar  
    40    21    62 1   
    41    22    23 ar  
    42    22    63 1   
    43    23    24 ar  
    44    23    64 1   
    45    24    65 1   
    46    25    26 1   
    47    25    27 1   
    48    26    66 1   
    49    26    67 1   
    50    26    68 1   
    51    27    28 2   
    52    27    29 1   
    53    29    30 1   
    54    29    36 1   
    55    29    69 1   
    56    30    31 1   
    57    30    70 1   
    58    30    71 1   
    59    31    32 2   
    60    31    35 1   
    61    32    33 1   
    62    32    72 1   
    63    33    34 2   
    64    34    35 1   
    65    34    73 1   
    66    35    74 1   
    67    36    37 1   
    68    36    75 1   
    69    37    38 2   
    70    37    39 1   
    71    39    40 1   
    72    40    41 1   
    73    40    76 1   
    74    40    77 1   
    75    41    42 ar  
    76    41    46 ar  
    77    42    43 ar  
    78    42    78 1   
    79    43    44 ar  
    80    43    79 1   
    81    44    45 ar  
    82    44    80 1   
    83    45    46 ar  
    84    45    81 1   
    85    46    82 1   
@<TRIPOS>SUBSTRUCTURE
     1 BD7         1 TEMP              0 ****  ****    0 ROOT
