@<TRIPOS>MOLECULE
molecule
  108   113     1     0     0
SMALL
bcc


@<TRIPOS>ATOM
      1 C5           0.0000     0.0000     0.0000 ca         1 BDC      -0.193300
      2 C6           1.3970     0.0000     0.0000 ca         1 BDC      -0.096000
      3 C7           2.0900     0.0000     1.2040 ca         1 BDC      -0.154500
      4 C8           1.3830    -0.0010     2.4020 ca         1 BDC      -0.127000
      5 C9          -0.7470    -0.0010     3.6130 ca         1 BDC       0.274100
      6 C1          -2.9300    -0.0020     4.7290 ca         1 BDC      -0.071000
      7 C2          -4.3200    -0.0030     4.6610 ca         1 BDC      -0.169000
      8 C3          -4.9450    -0.0040     3.4210 ca         1 BDC      -0.049500
      9 C4          -4.1780    -0.0030     2.2530 ca         1 BDC      -0.211400
     10 C14         -0.7310    -0.0000     1.1850 ca         1 BDC       0.480100
     11 C13         -0.0230    -0.0000     2.3980 ca         1 BDC      -0.222800
     12 C11         -2.1610    -0.0010     3.5520 ca         1 BDC      -0.235800
     13 C12         -2.7860    -0.0020     2.2930 ca         1 BDC       0.500100
     14 N10         -2.0780    -0.0010     1.1470 nb         1 BDC      -0.722500
     15 N9          -0.0880    -0.0000     4.8350 nu         1 BDC      -0.791100
     16 CD1         -4.8840    -0.0050     0.9760 c          1 BDC       0.679700
     17 OD1         -4.3660     0.5140    -0.0270 o          1 BDC      -0.591600
     18 CE1          1.2790     0.4100     5.0100 c3         1 BDC       0.220300
     19 CE3          2.9620     1.4640     6.5620 c3         1 BDC      -0.077400
     20 CE2          1.5050     1.0390     6.3790 c3         1 BDC      -0.102400
     21 CE4          3.1810     2.1300     7.9220 c3         1 BDC      -0.078400
     22 ND1         -6.1330    -0.6300     0.9460 ns         1 BDC      -0.587400
     23 CD2         -6.9420    -0.7340    -0.2460 c3         1 BDC       0.109500
     24 CD3         -6.6440    -1.9990    -1.0330 c3         1 BDC       0.139300
     25 ND2         -7.4360    -2.0890    -2.2290 n3         1 BDC      -0.730600
     26 CD7         -7.1520    -3.3300    -2.9670 c3         1 BDC       0.148100
     27 CD8         -7.2110    -0.9330    -3.1090 c3         1 BDC       0.148100
     28 CF4          4.6450     2.5260     8.1190 c3         1 BDC      -0.078400
     29 CF3          4.8580     3.2220     9.4640 c3         1 BDC      -0.077400
     30 CF2          6.3300     3.5900     9.6720 c3         1 BDC      -0.102400
     31 CF1          6.5790     4.2750    11.0120 c3         1 BDC       0.220300
     32 N9'          5.8140     5.4830    11.1600 nu         1 BDC      -0.791100
     33 C5'          5.8640     5.5210    15.9970 ca         1 BDC      -0.193300
     34 C6'          6.9180     4.6050    16.0180 ca         1 BDC      -0.096000
     35 C7'          7.4470     4.1280    14.8250 ca         1 BDC      -0.154500
     36 C8'          6.9180     4.5670    13.6160 ca         1 BDC      -0.127000
     37 C9'          5.3130     5.9410    12.3730 ca         1 BDC       0.274100
     38 C1'          3.6700     7.3500    11.2230 ca         1 BDC      -0.071000
     39 C2'          2.6210     8.2620    11.2680 ca         1 BDC      -0.169000
     40 C3'          2.1450     8.6970    12.4990 ca         1 BDC      -0.049500
     41 C4'          2.7200     8.2170    13.6780 ca         1 BDC      -0.211400
     42 CE'          5.3170     5.9780    14.8000 ca         1 BDC       0.480100
     43 CD'          5.8560     5.4890    13.5970 ca         1 BDC      -0.222800
     44 CB'          4.2460     6.8690    12.4120 ca         1 BDC      -0.235800
     45 CC'          3.7700     7.3030    13.6600 ca         1 BDC       0.500100
     46 NA'          4.3010     6.8610    14.8170 nb         1 BDC      -0.722500
     47 CB1          2.1840     8.7060    14.9440 c          1 BDC       0.679700
     48 O1X          1.6750     9.8360    15.0150 o          1 BDC      -0.591600
     49 NB1          2.2530     7.8370    16.0360 ns         1 BDC      -0.587400
     50 CB2          1.7440     8.1660    17.3480 c3         1 BDC       0.109500
     51 CB3          2.7940     8.8360    18.2190 c3         1 BDC       0.139300
     52 NB2          2.2900     9.1430    19.5300 n3         1 BDC      -0.730600
     53 CB7          1.1220    10.0350    19.4590 c3         1 BDC       0.148100
     54 CB8          3.3270     9.7590    20.3710 c3         1 BDC       0.148100
     55 H5          -0.5280     0.0000    -0.9460 ha         1 BDC       0.151500
     56 H6           1.9390     0.0010    -0.9380 ha         1 BDC       0.135000
     57 H7           3.1740    -0.0000     1.2090 ha         1 BDC       0.131500
     58 H8           1.9190    -0.0010     3.3440 ha         1 BDC       0.148000
     59 H1          -2.4370    -0.0020     5.6930 ha         1 BDC       0.121000
     60 H2          -4.9110    -0.0040     5.5700 ha         1 BDC       0.137500
     61 H3          -6.0260    -0.0040     3.3590 ha         1 BDC       0.148500
     62 H9          -0.5950    -0.3040     5.6430 hn         1 BDC       0.440300
     63 HE11         1.5320     1.1320     4.2430 h1         1 BDC       0.056700
     64 HE12         1.9230    -0.4560     4.9080 h1         1 BDC       0.056700
     65 HE31         3.2280     2.1630     5.7780 hc         1 BDC       0.044700
     66 HE32         3.5980     0.5900     6.4890 hc         1 BDC       0.044700
     67 HE21         0.8660     1.9080     6.4790 hc         1 BDC       0.050200
     68 HE22         1.2460     0.3190     7.1470 hc         1 BDC       0.050200
     69 HE41         2.8920     1.4400     8.7050 hc         1 BDC       0.042950
     70 HE42         2.5620     3.0170     7.9850 hc         1 BDC       0.042950
     71 HD1         -6.4860    -1.0250     1.7950 hn         1 BDC       0.324500
     72 HD21        -7.9880    -0.7350     0.0380 h1         1 BDC       0.055700
     73 HD22        -6.7500     0.1250    -0.8770 h1         1 BDC       0.055700
     74 HD31        -5.5950    -2.0060    -1.3030 h1         1 BDC       0.038200
     75 HD32        -6.8520    -2.8590    -0.4070 h1         1 BDC       0.038200
     76 HD71        -6.1220    -3.3220    -3.3040 h1         1 BDC       0.033283
     77 HD72        -7.8120    -3.4010    -3.8230 h1         1 BDC       0.033283
     78 HD73        -7.3120    -4.1820    -2.3170 h1         1 BDC       0.033283
     79 HD81        -7.7930    -0.0910    -2.7550 h1         1 BDC       0.033283
     80 HD82        -6.1590    -0.6730    -3.1030 h1         1 BDC       0.033283
     81 HD83        -7.5150    -1.1820    -4.1190 h1         1 BDC       0.033283
     82 H4'1         5.2620     1.6360     8.0790 hc         1 BDC       0.042950
     83 H4'2         4.9410     3.1980     7.3220 hc         1 BDC       0.042950
     84 H3'1         4.2580     4.1230     9.4960 hc         1 BDC       0.044700
     85 H3'2         4.5420     2.5580    10.2600 hc         1 BDC       0.044700
     86 H2'1         6.9270     2.6870     9.6250 hc         1 BDC       0.050200
     87 H2'2         6.6400     4.2560     8.8760 hc         1 BDC       0.050200
     88 H1'1         7.6320     4.5160    11.0920 h1         1 BDC       0.056700
     89 H1'2         6.3130     3.5920    11.8100 h1         1 BDC       0.056700
     90 H9'          5.6250     6.0230    10.3390 hn         1 BDC       0.440300
     91 H6'          7.3240     4.2680    16.9640 ha         1 BDC       0.135000
     92 H7'          8.2650     3.4170    14.8360 ha         1 BDC       0.131500
     93 H8'          7.3260     4.1980    12.6830 ha         1 BDC       0.148000
     94 H1'          4.0450     7.0070    10.2660 ha         1 BDC       0.121000
     95 H2'          2.1790     8.6310    10.3510 ha         1 BDC       0.137500
     96 H3'          1.3280     9.4080    12.5450 ha         1 BDC       0.148500
     97 HD1'         2.6740     6.9390    15.9020 hn         1 BDC       0.324500
     98 H'21         0.8990     8.8340    17.2400 h1         1 BDC       0.055700
     99 H'22         1.4130     7.2560    17.8350 h1         1 BDC       0.055700
    100 H'31         3.1140     9.7540    17.7410 h1         1 BDC       0.038200
    101 H'32         3.6460     8.1740    18.3150 h1         1 BDC       0.038200
    102 H'71         0.2390     9.4550    19.2200 h1         1 BDC       0.033283
    103 H'72         0.9840    10.5260    20.4150 h1         1 BDC       0.033283
    104 H'73         1.2830    10.7810    18.6900 h1         1 BDC       0.033283
    105 H'81         3.6210    10.7100    19.9440 h1         1 BDC       0.033283
    106 H'82         4.1880     9.1040    20.4210 h1         1 BDC       0.033283
    107 H'83         2.9360     9.9180    21.3690 h1         1 BDC       0.033283
    108 H5'          5.4620     5.8850    16.9340 ha         1 BDC       0.151500
@<TRIPOS>BOND
     1     1     2 ar
     2     1    10 ar
     3     1    55 1
     4     2     3 ar
     5     2    56 1
     6     3     4 ar
     7     3    57 1
     8     4    11 ar
     9     4    58 1
    10     5    11 ar
    11     5    12 ar
    12     5    15 1
    13     6     7 ar
    14     6    12 ar
    15     6    59 1
    16     7     8 ar
    17     7    60 1
    18     8     9 ar
    19     8    61 1
    20     9    13 ar
    21     9    16 1
    22    10    11 ar
    23    10    14 ar
    24    12    13 ar
    25    13    14 ar
    26    15    18 1
    27    15    62 1
    28    16    17 2
    29    16    22 1
    30    18    20 1
    31    18    63 1
    32    18    64 1
    33    19    20 1
    34    19    21 1
    35    19    65 1
    36    19    66 1
    37    20    67 1
    38    20    68 1
    39    21    28 1
    40    21    69 1
    41    21    70 1
    42    22    23 1
    43    22    71 1
    44    23    24 1
    45    23    72 1
    46    23    73 1
    47    24    25 1
    48    24    74 1
    49    24    75 1
    50    25    26 1
    51    25    27 1
    52    26    76 1
    53    26    77 1
    54    26    78 1
    55    27    79 1
    56    27    80 1
    57    27    81 1
    58    28    29 1
    59    28    82 1
    60    28    83 1
    61    29    30 1
    62    29    84 1
    63    29    85 1
    64    30    31 1
    65    30    86 1
    66    30    87 1
    67    31    32 1
    68    31    88 1
    69    31    89 1
    70    32    37 1
    71    32    90 1
    72    33    34 ar
    73    33    42 ar
    74    33   108 1
    75    34    35 ar
    76    34    91 1
    77    35    36 ar
    78    35    92 1
    79    36    43 ar
    80    36    93 1
    81    37    43 ar
    82    37    44 ar
    83    38    39 ar
    84    38    44 ar
    85    38    94 1
    86    39    40 ar
    87    39    95 1
    88    40    41 ar
    89    40    96 1
    90    41    45 ar
    91    41    47 1
    92    42    43 ar
    93    42    46 ar
    94    44    45 ar
    95    45    46 ar
    96    47    48 2
    97    47    49 1
    98    49    50 1
    99    49    97 1
   100    50    51 1
   101    50    98 1
   102    50    99 1
   103    51    52 1
   104    51   100 1
   105    51   101 1
   106    52    53 1
   107    52    54 1
   108    53   102 1
   109    53   103 1
   110    53   104 1
   111    54   105 1
   112    54   106 1
   113    54   107 1
@<TRIPOS>SUBSTRUCTURE
     1 BDC         1 TEMP              0 ****  ****    0 ROOT
