@<TRIPOS>MOLECULE
molecule
   39    38     1     0     0
SMALL
bcc


@<TRIPOS>ATOM
      1 O1           0.0000     0.0000     0.0000 oh         1 BDD      -0.612800
      2 C1           1.4280     0.0000     0.0000 c3         1 BDD       0.140400
      3 C2           1.9400     0.0000     1.4410 c3         1 BDD      -0.081400
      4 C3           3.4690    -0.0010     1.4410 c3         1 BDD      -0.082400
      5 C4           3.9810    -0.0010     2.8820 c3         1 BDD      -0.079400
      6 C5           5.5100    -0.0010     2.8820 c3         1 BDD      -0.082400
      7 C6           6.0220    -0.0010     4.3230 c3         1 BDD      -0.081400
      8 C7           7.5520    -0.0020     4.3230 c3         1 BDD      -0.081400
      9 C8           8.0630    -0.0020     5.7650 c3         1 BDD      -0.081400
     10 C9           9.5920    -0.0020     5.7630 c3         1 BDD      -0.080400
     11 C10         10.1030    -0.0020     7.2050 c3         1 BDD      -0.083400
     12 C11         11.6330    -0.0030     7.2040 c3         1 BDD      -0.084400
     13 C12         12.1440    -0.0020     8.6450 c3         1 BDD       0.006000
     14 Br          14.1100    -0.0030     8.6450 br         1 BDD      -0.188400
     15 HO1         -0.3140     0.0000    -0.8890 ho         1 BDD       0.401000
     16 H11          1.7880     0.8840    -0.5110 h1         1 BDD       0.018700
     17 H12          1.7880    -0.8840    -0.5110 h1         1 BDD       0.018700
     18 H21          1.5790     0.8850     1.9520 hc         1 BDD       0.053700
     19 H22          1.5780    -0.8840     1.9520 hc         1 BDD       0.053700
     20 H31          3.8300    -0.8850     0.9300 hc         1 BDD       0.040700
     21 H32          3.8310     0.8840     0.9300 hc         1 BDD       0.040700
     22 H41          3.6200    -0.8850     3.3930 hc         1 BDD       0.043700
     23 H42          3.6210     0.8840     3.3930 hc         1 BDD       0.043700
     24 H51          5.8710    -0.8860     2.3710 hc         1 BDD       0.041200
     25 H52          5.8710     0.8830     2.3710 hc         1 BDD       0.041200
     26 H61          5.6610     0.8840     4.8340 hc         1 BDD       0.041700
     27 H62          5.6600    -0.8850     4.8340 hc         1 BDD       0.041700
     28 H71          7.9120    -0.8860     3.8120 hc         1 BDD       0.041700
     29 H72          7.9130     0.8830     3.8120 hc         1 BDD       0.041700
     30 H81          7.7020    -0.8860     6.2760 hc         1 BDD       0.041700
     31 H82          7.7030     0.8830     6.2760 hc         1 BDD       0.041700
     32 H91          9.9530     0.8820     5.2520 hc         1 BDD       0.043700
     33 H92          9.9520    -0.8870     5.2520 hc         1 BDD       0.043700
     34 H101         9.7430     0.8830     7.7160 hc         1 BDD       0.042700
     35 H102         9.7420    -0.8860     7.7160 hc         1 BDD       0.042700
     36 H111        11.9930    -0.8880     6.6930 hc         1 BDD       0.055700
     37 H112        11.9940     0.8810     6.6920 hc         1 BDD       0.055700
     38 H121        11.7830    -0.8850     9.1570 h1         1 BDD       0.070700
     39 H122        11.7840     0.8840     9.1550 h1         1 BDD       0.070700
@<TRIPOS>BOND
     1     1     2 1
     2     1    15 1
     3     2     3 1
     4     2    16 1
     5     2    17 1
     6     3     4 1
     7     3    18 1
     8     3    19 1
     9     4     5 1
    10     4    20 1
    11     4    21 1
    12     5     6 1
    13     5    22 1
    14     5    23 1
    15     6     7 1
    16     6    24 1
    17     6    25 1
    18     7     8 1
    19     7    26 1
    20     7    27 1
    21     8     9 1
    22     8    28 1
    23     8    29 1
    24     9    10 1
    25     9    30 1
    26     9    31 1
    27    10    11 1
    28    10    32 1
    29    10    33 1
    30    11    12 1
    31    11    34 1
    32    11    35 1
    33    12    13 1
    34    12    36 1
    35    12    37 1
    36    13    14 1
    37    13    38 1
    38    13    39 1
@<TRIPOS>SUBSTRUCTURE
     1 BDD         1 TEMP              0 ****  ****    0 ROOT
