@<TRIPOS>MOLECULE
BDD
   39    38     1     0     0
SMALL
bcc


@<TRIPOS>ATOM
      1 O1          0.0140    0.0000    0.0740 oh        1 BDD     -0.601800
      2 C1          1.4310   -0.0000    0.0030 c3        1 BDD      0.132400
      3 C2          1.9490   -0.0000    1.4310 c3        1 BDD     -0.084400
      4 C3          3.4610   -0.0010    1.4480 c3        1 BDD     -0.078400
      5 C4          3.9900   -0.0010    2.8670 c3        1 BDD     -0.078400
      6 C5          5.5030   -0.0010    2.8890 c3        1 BDD     -0.079400
      7 C6          6.0310   -0.0010    4.3070 c3        1 BDD     -0.079400
      8 C7          7.5450   -0.0020    4.3290 c3        1 BDD     -0.079400
      9 C8          8.0730   -0.0010    5.7480 c3        1 BDD     -0.079400
     10 C9          9.5860   -0.0020    5.7690 c3        1 BDD     -0.078400
     11 C10        10.1140   -0.0020    7.1880 c3        1 BDD     -0.080400
     12 C11        11.6300   -0.0030    7.2050 c3        1 BDD     -0.081400
     13 C12        12.1380   -0.0020    8.6250 c3        1 BDD     -0.009000
     14 BR         14.0620   -0.0030    8.7440 br        1 BDD     -0.179400
     15 HO1        -0.3070    0.0010   -0.8350 ho        1 BDD      0.398000
     16 H11         1.7870    0.9130   -0.5470 h1        1 BDD      0.019700
     17 H12         1.7860   -0.9130   -0.5470 h1        1 BDD      0.019700
     18 H21         1.5540    0.9020    1.9660 hc        1 BDD      0.055700
     19 H22         1.5540   -0.9020    1.9670 hc        1 BDD      0.055700
     20 H31         3.8450   -0.9040    0.9040 hc        1 BDD      0.039700
     21 H32         3.8460    0.9020    0.9040 hc        1 BDD      0.039700
     22 H41         3.6050   -0.9030    3.4110 hc        1 BDD      0.041700
     23 H42         3.6050    0.9020    3.4110 hc        1 BDD      0.041700
     24 H51         5.8880    0.9010    2.3440 hc        1 BDD      0.039700
     25 H52         5.8870   -0.9040    2.3440 hc        1 BDD      0.039700
     26 H61         5.6470    0.9020    4.8510 hc        1 BDD      0.040700
     27 H62         5.6470   -0.9030    4.8520 hc        1 BDD      0.040700
     28 H71         7.9290   -0.9050    3.7850 hc        1 BDD      0.039700
     29 H72         7.9290    0.9010    3.7850 hc        1 BDD      0.039700
     30 H81         7.6880   -0.9040    6.2930 hc        1 BDD      0.040700
     31 H82         7.6890    0.9020    6.2920 hc        1 BDD      0.040700
     32 H91         9.9710    0.9000    5.2250 hc        1 BDD      0.041700
     33 H92         9.9700   -0.9050    5.2260 hc        1 BDD      0.041700
     34 H101        9.7300   -0.9040    7.7330 hc        1 BDD      0.041700
     35 H102        9.7310    0.9020    7.7320 hc        1 BDD      0.041700
     36 H111       12.0090    0.9010    6.6580 hc        1 BDD      0.055700
     37 H112       12.0080   -0.9070    6.6590 hc        1 BDD      0.055700
     38 H121       11.7900    0.9070    9.1690 h1        1 BDD      0.071700
     39 H122       11.7890   -0.9100    9.1700 h1        1 BDD      0.071700
@<TRIPOS>BOND
     1    1    2 1   
     2    1   15 1   
     3    2    3 1   
     4    2   16 1   
     5    2   17 1   
     6    3    4 1   
     7    3   18 1   
     8    3   19 1   
     9    4    5 1   
    10    4   20 1   
    11    4   21 1   
    12    5    6 1   
    13    5   22 1   
    14    5   23 1   
    15    6    7 1   
    16    6   24 1   
    17    6   25 1   
    18    7    8 1   
    19    7   26 1   
    20    7   27 1   
    21    8    9 1   
    22    8   28 1   
    23    8   29 1   
    24    9   10 1   
    25    9   30 1   
    26    9   31 1   
    27   10   11 1   
    28   10   32 1   
    29   10   33 1   
    30   11   12 1   
    31   11   34 1   
    32   11   35 1   
    33   12   13 1   
    34   12   36 1   
    35   12   37 1   
    36   13   14 1   
    37   13   38 1   
    38   13   39 1   
@<TRIPOS>SUBSTRUCTURE
     1 BDD         1 TEMP              0 ****  ****    0 ROOT
