@<TRIPOS>MOLECULE
molecule
   30    31     1     0     0
SMALL
bcc


@<TRIPOS>ATOM
      1 CAE          0.0000     0.0000     0.0000 ca         1 BDE      -0.030000
      2 CAF          1.3840     0.0000     0.0000 ca         1 BDE      -0.262300
      3 CAA          2.0610     0.0000     1.2070 ca         1 BDE       0.442200
      4 NAB          1.4090    -0.0000     2.3540 nb         1 BDE      -0.694000
      5 CAC          0.0940     0.0050     2.4060 ca         1 BDE       0.441200
      6 CAD         -0.6630    -0.0010     1.2340 ca         1 BDE      -0.273900
      7 CAG         -2.1400    -0.0010     1.2930 c          1 BDE       0.693700
      8 OAU         -2.7890    -0.0010     0.2650 o          1 BDE      -0.552100
      9 NAH         -2.7670    -0.0010     2.4850 ns         1 BDE      -0.354900
     10 NAI         -4.1670    -0.0020     2.5420 n2         1 BDE      -0.370300
     11 CAJ         -4.7710    -0.0020     3.6920 ce         1 BDE       0.376800
     12 CAK         -6.2420    -0.0030     3.7500 ca         1 BDE      -0.156900
     13 CAL         -6.8950    -0.0030     4.9860 ca         1 BDE      -0.039000
     14 CAM         -8.2720    -0.0030     5.0370 ca         1 BDE      -0.079900
     15 BrAT        -9.1540    -0.0040     6.7100 br         1 BDE      -0.065100
     16 CAN         -9.0160    -0.0040     3.8620 ca         1 BDE       0.194100
     17 OAS        -10.3730    -0.0060     3.9200 oh         1 BDE      -0.501100
     18 CAO         -8.3770    -0.0100     2.6300 ca         1 BDE      -0.135900
     19 BrAR        -9.3960    -0.0120     1.0370 br         1 BDE      -0.058100
     20 CAP         -6.9940    -0.0040     2.5670 ca         1 BDE       0.207100
     21 OAQ         -6.3670    -0.0040     1.3620 oh         1 BDE      -0.453100
     22 HAE         -0.5560    -0.0020    -0.9300 ha         1 BDE       0.167000
     23 HAF          1.9310     0.0000    -0.9350 ha         1 BDE       0.147000
     24 HAA          3.1440    -0.0020     1.2090 h4         1 BDE       0.028100
     25 HAC         -0.4050     0.0050     3.3680 h4         1 BDE       0.015100
     26 HAH         -2.2320    -0.0000     3.3310 hn         1 BDE       0.297500
     27 HAJ         -4.1920    -0.0010     4.6080 h4         1 BDE      -0.009200
     28 HAL         -6.3190    -0.0500     5.9030 ha         1 BDE       0.155000
     29 HAS        -10.6900     0.8810     3.8970 ho         1 BDE       0.437000
     30 HAQ         -6.8050    -0.6030     0.7790 ho         1 BDE       0.436000
@<TRIPOS>BOND
     1     1     2 ar
     2     1     6 ar
     3     1    22 1
     4     2     3 ar
     5     2    23 1
     6     3     4 ar
     7     3    24 1
     8     4     5 ar
     9     5     6 ar
    10     5    25 1
    11     6     7 1
    12     7     8 2
    13     7     9 1
    14     9    10 1
    15     9    26 1
    16    10    11 2
    17    11    12 1
    18    11    27 1
    19    12    13 ar
    20    12    20 ar
    21    13    14 ar
    22    13    28 1
    23    14    15 1
    24    14    16 ar
    25    16    17 1
    26    16    18 ar
    27    17    29 1
    28    18    19 1
    29    18    20 ar
    30    20    21 1
    31    21    30 1
@<TRIPOS>SUBSTRUCTURE
     1 BDE         1 TEMP              0 ****  ****    0 ROOT
