@<TRIPOS>MOLECULE
BDE
   30    32     1     0     0
SMALL
bcc


@<TRIPOS>ATOM
      1 CAE          0.0000     0.0000     0.0000 c2         1 BDE       0.002000
      2 CAF          1.3840     0.0000     0.0000 c2         1 BDE      -0.168000
      3 CAA          2.0610     0.0000     1.2070 c2         1 BDE      -0.036000
      4 NAB          1.4090    -0.0000     2.3540 n2         1 BDE      -0.059000
      5 CAC          0.0940     0.0050     2.4060 c2         1 BDE      -0.040000
      6 CAD         -0.6630    -0.0010     1.2340 c2         1 BDE      -0.202000
      7 CAG         -2.1400    -0.0010     1.2930 c2         1 BDE       0.275000
      8 OAU         -2.7890    -0.0010     0.2650 o          1 BDE      -0.353000
      9 NAH         -2.7670    -0.0010     2.4850 ns         1 BDE       0.094000
     10 NAI         -4.1670    -0.0020     2.5420 n2         1 BDE       0.046000
     11 CAJ         -4.7710    -0.0020     3.6920 c2         1 BDE      -0.460000
     12 CAK         -6.2420    -0.0030     3.7500 c3         1 BDE      -0.171000
     13 CAL         -6.8950    -0.0030     4.9860 c2         1 BDE       0.045000
     14 CAM         -8.2720    -0.0030     5.0370 c2         1 BDE      -0.211000
     15 BrAT        -9.1540    -0.0040     6.7100 br         1 BDE       0.059000
     16 CAN         -9.0160    -0.0040     3.8620 c2         1 BDE       0.189000
     17 OAS        -10.3730    -0.0060     3.9200 oh         1 BDE      -0.238000
     18 CAO         -8.3770    -0.0100     2.6300 c2         1 BDE      -0.273000
     19 BrAR        -9.3960    -0.0120     1.0370 br         1 BDE       0.070000
     20 CAP         -6.9940    -0.0040     2.5670 c2         1 BDE       0.150000
     21 OAQ         -6.3670    -0.0040     1.3620 oh         1 BDE      -0.185000
     22 HAE         -0.5560    -0.0020    -0.9300 ha         1 BDE       0.132000
     23 HAF          1.9310     0.0000    -0.9350 ha         1 BDE       0.119000
     24 HAA          3.1440    -0.0020     1.2090 h4         1 BDE       0.118000
     25 HAC         -0.4050     0.0050     3.3680 h4         1 BDE       0.117000
     26 HAH         -2.2320    -0.0090     3.3310 hn         1 BDE       0.090000
     27 HAJ         -5.3900     0.8730     3.5320 DU         1 BDE       0.321000
     28 HAL         -6.3190    -0.0530     5.9030 ha         1 BDE       0.138000
     29 HAS        -10.6870    -0.8950     3.8990 ho         1 BDE       0.220000
     30 HAQ         -6.8700     0.5020     0.7450 ho         1 BDE       0.211000
@<TRIPOS>BOND
     1     1     2 1   
     2     1     6 1   
     3     1    22 1   
     4     2     3 1   
     5     2    23 1   
     6     3     4 1   
     7     3    24 1   
     8     4     5 1   
     9     5     6 1   
    10     5    25 1   
    11     6     7 1   
    12     7     8 1   
    13     7     9 1   
    14     9    10 1   
    15     9    26 1   
    16    10    11 1   
    17    11    12 1   
    18    11    27 1   
    19    12    13 1   
    20    12    20 1   
    21    12    27 1   
    22    13    14 1   
    23    13    28 1   
    24    14    15 1   
    25    14    16 1   
    26    16    17 1   
    27    16    18 1   
    28    17    29 1   
    29    18    19 1   
    30    18    20 1   
    31    20    21 1   
    32    21    30 1   
@<TRIPOS>SUBSTRUCTURE
     1 BDE         1 TEMP              0 ****  ****    0 ROOT
