@<TRIPOS>MOLECULE
BDF
   24    24     1     0     0
SMALL
bcc


@<TRIPOS>ATOM
      1 C1          1.4290   -0.6270   -0.3110 c3        1 BDF      0.120400
      2 C2         -0.0480   -0.2080   -0.1440 c3        1 BDF      0.259600
      3 C3         -0.4080    0.0440    1.3410 c3        1 BDF      0.101100
      4 C4         -1.9240    0.2490    1.4980 c3        1 BDF      0.088100
      5 C5         -2.6860   -0.8970    0.8070 c3        1 BDF      0.075100
      6 C6         -2.2410   -1.0090   -0.6490 c3        1 BDF      0.101400
      7 O1          2.2160    0.5260   -0.5040 oh        1 BDF     -0.596800
      8 O2         -0.3440    0.9780   -0.8450 oh        1 BDF     -0.623800
      9 O3          0.3400    1.1450    1.8090 oh        1 BDF     -0.585800
     10 O4         -2.2830    0.3530    2.8570 oh        1 BDF     -0.577800
     11 O5         -2.4950   -2.1060    1.5200 oh        1 BDF     -0.595800
     12 O6         -0.8360   -1.2270   -0.7390 os        1 BDF     -0.439600
     13 H11         1.5600   -1.2400   -1.2420 h1        1 BDF      0.069700
     14 H12         1.7660   -1.2050    0.5860 h1        1 BDF      0.069700
     15 H3         -0.0660   -0.8270    1.9650 h1        1 BDF      0.086700
     16 H4         -2.2200    1.2360    1.0400 h1        1 BDF      0.095700
     17 H5         -3.7930   -0.7040    0.8720 h1        1 BDF      0.098700
     18 H61        -2.6830   -1.9190   -1.1370 h1        1 BDF      0.074700
     19 H62        -2.5200   -0.0800   -1.2110 h1        1 BDF      0.074700
     20 HO1         2.1140    1.0770    0.2870 ho        1 BDF      0.423000
     21 HO2         0.1950    0.9930   -1.6480 ho        1 BDF      0.434000
     22 HO3        -0.0380    1.9410    1.4080 ho        1 BDF      0.421000
     23 HO4        -2.2190   -0.5330    3.2400 ho        1 BDF      0.415000
     24 HO5        -1.6320   -2.4580    1.2620 ho        1 BDF      0.410000
@<TRIPOS>BOND
     1    1    2 1
     2    1    7 1
     3    1   13 1
     4    1   14 1
     5    2    3 1
     6    2    8 1
     7    2   12 1
     8    3    4 1
     9    3    9 1
    10    3   15 1
    11    4    5 1
    12    4   10 1
    13    4   16 1
    14    5    6 1
    15    5   11 1
    16    5   17 1
    17    6   12 1
    18    6   18 1
    19    6   19 1
    20    7   20 1
    21    8   21 1
    22    9   22 1
    23   10   23 1
    24   11   24 1
@<TRIPOS>SUBSTRUCTURE
     1 BDF         1 TEMP              0 ****  ****    0 ROOT
