@<TRIPOS>MOLECULE
molecule
   32    32     1     0     0
SMALL
bcc


@<TRIPOS>ATOM
      1 O1           0.0000     0.0000     0.0000 o          1 BDH      -0.790800
      2 O2           1.9440     0.0000     1.0470 o          1 BDH      -0.790800
      3 O3           3.4090    -0.3900    -3.5750 o          1 BDH      -0.673100
      4 O4           3.4940    -2.0830    -7.0960 o          1 BDH      -0.826300
      5 O5           1.9880    -3.1660    -5.8980 o          1 BDH      -0.826300
      6 N1           3.3780     0.6930    -1.1280 nz         1 BDH      -0.790600
      7 N2           3.4430    -2.6070    -3.6340 ns         1 BDH      -0.514900
      8 C1           2.0960     0.0010    -1.3030 c3         1 BDH       0.011500
      9 C2           2.3520    -1.4410    -1.7460 c3         1 BDH      -0.172400
     10 C3           3.1050    -1.4410    -3.0500 c          1 BDH       0.643100
     11 C4           1.3410     0.0000     0.0000 c          1 BDH       0.866600
     12 C5           4.1760    -2.6070    -4.9020 c3         1 BDH       0.003700
     13 C7           3.1980    -2.6060    -6.0480 c          1 BDH       0.881600
     14 CB           5.0560    -3.8550    -4.9830 c3         1 BDH      -0.010100
     15 CG           6.0340    -3.8550    -3.8380 cc         1 BDH      -0.206900
     16 ND1          5.8410    -4.4050    -2.5990 na         1 BDH      -0.298900
     17 CD2          7.2700    -3.3200    -3.8370 cd         1 BDH       0.294200
     18 CE1          6.9630    -4.1810    -1.8830 cc         1 BDH       0.363400
     19 NE2          7.8120    -3.5300    -2.6280 nd         1 BDH      -0.709000
     20 HN11         3.4480     1.0330    -0.1890 hn         1 BDH       0.441133
     21 HN12         3.4320     1.4630    -1.7660 hn         1 BDH       0.441133
     22 HN2          3.1610    -3.4730    -3.2200 hn         1 BDH       0.306500
     23 H1           1.5110     0.5110    -2.0580 hx         1 BDH       0.123700
     24 H21          1.4060    -1.9520    -1.8760 hc         1 BDH       0.092700
     25 H22          2.9370    -1.9520    -0.9910 hc         1 BDH       0.092700
     26 H5           4.7980    -1.7220    -4.9590 h1         1 BDH       0.078700
     27 HB1          5.5990    -3.8540    -5.9210 hc         1 BDH       0.069700
     28 HB2          4.4350    -4.7400    -4.9270 hc         1 BDH       0.069700
     29 HD1          5.0200    -4.8830    -2.2840 hn         1 BDH       0.293700
     30 HD2          7.7410    -2.8050    -4.6650 h4         1 BDH       0.043100
     31 HE1          7.1300    -4.4910    -0.8590 h5         1 BDH       0.053100
     32 H13          4.1290     0.0520    -1.2890 hn         1 BDH       0.441133
@<TRIPOS>BOND
     1     1    11 1
     2     2    11 1
     3     3    10 2
     4     4    13 1
     5     5    13 1
     6     6     8 1
     7     6    20 1
     8     6    21 1
     9     7    10 1
    10     7    12 1
    11     7    22 1
    12     8     9 1
    13     8    11 1
    14     8    23 1
    15     9    10 1
    16     9    24 1
    17     9    25 1
    18    12    13 1
    19    12    14 1
    20    12    26 1
    21    14    15 1
    22    14    27 1
    23    14    28 1
    24    15    16 1
    25    15    17 2
    26    16    18 1
    27    16    29 1
    28    17    19 1
    29    17    30 1
    30    18    19 2
    31    18    31 1
    32    32     6 1
@<TRIPOS>SUBSTRUCTURE
     1 BDH         1 TEMP              0 ****  ****    0 ROOT
