@<TRIPOS>MOLECULE
BDI
   27    28     1     0     0
SMALL
bcc


@<TRIPOS>ATOM
      1 N1         -0.3860    0.5650   -0.0670 nc        1 BDI     -0.599000
      2 C1          0.8940    0.1150   -0.2490 cd        1 BDI      0.427800
      3 C6          1.6540    0.1350   -1.5320 c3        1 BDI     -0.116700
      4 C7          2.0390   -1.2630   -1.9760 c3        1 BDI     -0.083400
      5 C8          2.7540   -1.2220   -3.3110 c3        1 BDI     -0.080400
      6 C9          3.1540   -2.6030   -3.7610 c3        1 BDI     -0.094100
      7 N2          1.4480   -0.3750    0.9510 na        1 BDI     -0.258900
      8 C2          0.4720   -0.2280    1.9200 cd        1 BDI     -0.252200
      9 C4          0.4840   -0.5380    3.3480 c         1 BDI      0.710100
     10 N5         -0.7760   -0.3840    3.9980 n         1 BDI     -0.389500
     11 N4         -1.7420    0.4450    3.4710 n         1 BDI     -0.407500
     12 C5         -1.8720    0.6230    2.0520 c         1 BDI      0.604000
     13 O1         -2.9450    1.0470    1.6060 o         1 BDI     -0.561500
     14 C3         -0.6540    0.3580    1.2760 cc        1 BDI      0.302800
     15 O3          1.4600   -0.9860    3.9700 o         1 BDI     -0.601500
     16 HC61        1.0210    0.6230   -2.3240 hc        1 BDI      0.076700
     17 HC62        2.5750    0.7650   -1.4020 hc        1 BDI      0.076700
     18 HC71        1.1190   -1.8990   -2.0620 hc        1 BDI      0.046700
     19 HC72        2.7050   -1.7410   -1.2120 hc        1 BDI      0.046700
     20 HC81        3.6660   -0.5730   -3.2280 hc        1 BDI      0.043200
     21 HC82        2.0830   -0.7540   -4.0800 hc        1 BDI      0.043200
     22 HC91        3.8440   -3.0760   -3.0210 hc        1 BDI      0.036700
     23 HC92        2.2560   -3.2580   -3.8700 hc        1 BDI      0.036700
     24 HC93        3.6760   -2.5530   -4.7470 hc        1 BDI      0.036700
     25 HN2         2.3470   -0.7630    1.0820 hn        1 BDI      0.325700
     26 HN5        -0.6680   -0.1830    4.9860 hn        1 BDI      0.316500
     27 HN4        -2.6320    0.2190    3.9000 hn        1 BDI      0.312500
@<TRIPOS>BOND
     1    1    2 2   
     2    1   14 1   
     3    2    3 1   
     4    2    7 1   
     5    3    4 1   
     6    3   16 1   
     7    3   17 1   
     8    4    5 1   
     9    4   18 1   
    10    4   19 1   
    11    5    6 1   
    12    5   20 1   
    13    5   21 1   
    14    6   22 1   
    15    6   23 1   
    16    6   24 1   
    17    7    8 1   
    18    7   25 1   
    19    8    9 1   
    20    8   14 2   
    21    9   10 1   
    22    9   15 2   
    23   10   11 1   
    24   10   26 1   
    25   11   12 1   
    26   11   27 1   
    27   12   13 2   
    28   12   14 1   
@<TRIPOS>SUBSTRUCTURE
     1 BDI         1 TEMP              0 ****  ****    0 ROOT
