@<TRIPOS>MOLECULE
BDJ
   31    32     1     0     0
SMALL
bcc


@<TRIPOS>ATOM
      1 C1           0.0000     0.0000     0.0000 c2         1 BDJ       0.402800
      2 N1           1.3720     0.0000     0.0000 nu         1 BDJ      -0.542200
      3 O1           0.3740     0.0000     3.3960 o          1 BDJ      -0.629500
      4 C2           0.4960     0.0000     2.1900 c          1 BDJ       0.629500
      5 N2          -0.4980    -0.0000     1.2810 n          1 BDJ       0.000700
      6 C3           1.7930     0.0000     1.4100 c3         1 BDJ       0.019200
      7 N3          -0.7360     0.0060    -1.0740 n2         1 BDJ      -0.807100
      8 C4           2.6060    -1.2570     1.7260 c3         1 BDJ       0.008900
      9 C5           2.6070     1.2560     1.7260 c3         1 BDJ       0.008900
     10 C6          -1.9240     0.0010     1.6140 c3         1 BDJ       0.115300
     11 C7          -2.4140    -1.4190     1.7290 ca         1 BDJ      -0.124300
     12 C8          -2.3660    -2.0700     2.9470 ca         1 BDJ      -0.082000
     13 C9          -2.8150    -3.3740     3.0530 ca         1 BDJ      -0.097000
     14 C10         -3.3130    -4.0260     1.9410 ca         1 BDJ      -0.093000
     15 C11         -3.3610    -3.3760     0.7220 ca         1 BDJ      -0.040600
     16 C12         -2.9170    -2.0700     0.6170 ca         1 BDJ      -0.075000
     17 Cl1         -3.9850    -4.1940    -0.6770 cl         1 BDJ      -0.029400
     18 H1           1.9700    -0.0000    -0.8020 hn         1 BDJ       0.330800
     19 H2          -0.3040     0.0080    -1.9770 hn         1 BDJ       0.334400
     20 H3           3.4990    -1.2730     1.1130 hc         1 BDJ       0.016700
     21 H4           2.0080    -2.1360     1.5150 hc         1 BDJ       0.016700
     22 H5           2.8860    -1.2530     2.7720 hc         1 BDJ       0.016700
     23 H6           3.4890     1.2820     1.0980 hc         1 BDJ       0.016700
     24 H7           2.0030     2.1350     1.5340 hc         1 BDJ       0.016700
     25 H8           2.9040     1.2420     2.7670 hc         1 BDJ       0.016700
     26 H9          -2.0740     0.5120     2.5570 h1         1 BDJ       0.045700
     27 H10         -2.4770     0.5110     0.8350 h1         1 BDJ       0.045700
     28 H11         -1.9760    -1.5590     3.8190 ha         1 BDJ       0.121000
     29 H12         -2.7780    -3.8840     4.0080 ha         1 BDJ       0.107000
     30 H13         -3.6630    -5.0480     2.0240 ha         1 BDJ       0.113000
     31 H14         -2.9540    -1.5590    -0.3380 ha         1 BDJ       0.136000
@<TRIPOS>BOND
     1     1     2 1   
     2     1     5 1   
     3     1     7 2   
     4     2     6 1   
     5     2    18 1   
     6     3     4 2   
     7     4     5 1   
     8     4     6 1   
     9     5    10 1   
    10     6     8 1   
    11     6     9 1   
    12     7    19 1   
    13     8    20 1   
    14     8    21 1   
    15     8    22 1   
    16     9    23 1   
    17     9    24 1   
    18     9    25 1   
    19    10    11 1   
    20    10    26 1   
    21    10    27 1   
    22    11    12 ar  
    23    11    16 ar  
    24    12    13 ar  
    25    12    28 1   
    26    13    14 ar  
    27    13    29 1   
    28    14    15 ar  
    29    14    30 1   
    30    15    16 ar  
    31    15    17 1   
    32    16    31 1   
@<TRIPOS>SUBSTRUCTURE
     1 BDJ         1 TEMP              0 ****  ****    0 ROOT
