@<TRIPOS>MOLECULE
BDK
   70    63     1     0     0
SMALL
bcc


@<TRIPOS>ATOM
      1 C1        437.4100  389.6190  331.5800 c3        1 BDK      0.199000
      2 C2        435.9370  389.4640  332.0940 c2        1 BDK      0.372000
      3 C3        434.9130  389.7430  331.1730 c1        1 BDK     -0.307000
      4 C4        434.0240  389.9910  330.4060 c1        1 BDK      0.044000
      5 C5        438.3380  393.4540  332.9580 c3        1 BDK     -0.219000
      6 C6        437.0680  394.1000  333.4260 c3        1 BDK     -0.219000
      7 C8        438.7210  387.9580  335.7760 c3        1 BDK      0.015000
      8 C9        438.9480  385.8710  337.0180 c2        1 BDK      0.364000
      9 C10       439.2170  385.2550  338.2900 c2        1 BDK     -0.463000
     10 C11       439.1420  385.9680  339.4980 c1        1 BDK      0.000000
     11 C12       438.4370  387.9620  338.2640 c2        1 BDK      0.351000
     12 C13       437.9640  389.2740  338.3900 c2        1 BDK     -0.975000
     13 C14       438.8260  393.5290  337.5380 c1        1 BDK      0.599000
     14 C15       438.0650  392.7040  336.7520 c2        1 BDK     -0.290000
     15 C16       437.6630  391.5000  337.1680 c1        1 BDK     -0.901000
     16 C17       437.8750  388.1960  331.0940 c2        1 BDK      0.288000
     17 C18     -1681.1940-1510.0270-1284.6980 c1        1 BDK     -0.198000
     18 C19     -1681.7780-1510.6780-1285.5790 c1        1 BDK      0.140000
     19 C20     -1678.4170-1512.0850-1282.9360 c2        1 BDK     -0.086000
     20 C21     -1678.9730-1510.9190-1282.9320 c1        1 BDK     -0.145000
     21 C22     -1679.5300-1509.7140-1282.9110 c2        1 BDK      0.047000
     22 C23     -1680.6030-1509.2810-1283.7630 c2        1 BDK      0.238000
     23 N1        437.6610  387.6250  334.7690 n4        1 BDK     -0.130000
     24 N2        438.5960  387.2740  337.0500 n         1 BDK     -0.309000
     25 N3        438.7590  387.2640  339.4400 n3        1 BDK     -0.189000
     26 N5        438.0210  387.9500  329.7800 n         1 BDK     -0.352000
     27 N6      -1682.3890-1511.3410-1286.4940 n3        1 BDK     -0.161000
     28 O1        435.7960  389.0920  333.2640 o         1 BDK     -0.312000
     29 O4        438.0700  387.3460  331.9980 o         1 BDK     -0.442000
     30 O5      -1679.1410-1508.7000-1282.0490 oh        1 BDK     -0.241000
     31 F1        437.5790  390.6180  330.6600 f         1 BDK     -0.135000
     32 F2        438.2270  390.0170  332.6240 f         1 BDK     -0.135000
     33 S1        436.9750  390.2700  337.6240 s4        1 BDK      1.820000
     34 H3        436.7190  387.8240  335.1060 hn        1 BDK      0.281000
     35 H4        433.2360  390.2110  329.7180 ha        1 BDK      0.263000
     36 H51       438.9370  394.1660  332.3390 hc        1 BDK      0.073333
     37 H52       438.1200  392.5500  332.3350 hc        1 BDK      0.073333
     38 H53       438.9680  393.1320  333.8230 hc        1 BDK      0.073333
     39 H61       436.4370  393.3800  334.0030 hc        1 BDK      0.073333
     40 H62       436.4670  394.4620  332.5550 hc        1 BDK      0.073333
     41 H63       437.2860  394.9810  334.0790 hc        1 BDK      0.073333
     42 H81       438.7290  389.0780  335.9320 hx        1 BDK      0.157000
     43 H82       439.7040  387.6350  335.2960 hx        1 BDK      0.157000
     44 H11       438.6700  387.7600  340.3080 hn        1 BDK      0.300000
     45 H14       438.2360  389.7380  339.3720 h4        1 BDK      0.216000
     46 H15       437.7880  393.0960  335.7350 ha        1 BDK      0.209000
     47 H16       436.7420  389.5640  336.5690 hs        1 BDK     -0.300000
     48 H181      438.9530  384.9240  330.4200 ha        1 BDK      0.001500
     49 H182      438.9680  385.3510  330.9460 ha        1 BDK      0.001500
     50 H191      439.8370  385.9980  332.9340 ha        1 BDK      0.001500
     51 H192      439.8130  386.1420  333.5980 ha        1 BDK      0.001500
     52 H201    -1682.1390-1512.2910-1286.6970 hn        1 BDK      0.287500
     53 H202    -1683.1300-1510.9190-1287.0240 hn        1 BDK      0.287500
     54 H211    -1678.7800-1512.9180-1282.3050 ha        1 BDK      0.183000
     55 H212    -1677.5390-1512.3220-1283.5650 ha        1 BDK      0.183000
     56 H221    -1678.4170-1509.0260-1281.4910 ho        1 BDK      0.252000
     57 H222        8.0370   -9.0080   10.9710 ha        1 BDK      0.001500
     58 H231        8.3140   -8.8580   10.3720 ha        1 BDK      0.001500
     59 H232    -1680.9530-1508.2300-1283.6110 ha        1 BDK      0.214000
     60 HN1       437.7120  386.5960  334.4610 hn        1 BDK      0.281000
     61 HN41      439.8370  383.6300  339.3100 hn        1 BDK      0.255333
     62 HN42      440.4150  383.7050  337.7310 hn        1 BDK      0.255333
     63 HN5       438.3270  387.0490  329.4790 hn        1 BDK      0.268000
     64 C7        437.5180  385.1680  333.4500 c1        1 BDK      0.149000
     65 N4        439.6020  383.8640  338.3340 n4        1 BDK      0.064000
     66 O2        437.6120  384.2850  332.6990 o         1 BDK     -0.094000
     67 H12       437.8250  388.1940  333.9210 hn        1 BDK      0.281000
     68 H521      437.9130  388.6710  329.1050 hn        1 BDK      0.268000
     69 H43       438.8270  383.2750  338.0140 hn        1 BDK      0.255333
     70 O3        438.9950  385.3280  335.8950 o         1 BDK     -0.391000
@<TRIPOS>BOND
     1    1    2 1   
     2    1   16 1   
     3    1   31 1   
     4    1   32 1   
     5    2    3 1   
     6    2   28 1   
     7    3    4 1   
     8    4   35 1   
     9    5    6 1   
    10    5   36 1   
    11    5   37 1   
    12    5   38 1   
    13    6   39 1   
    14    6   40 1   
    15    6   41 1   
    16    7   23 1   
    17    7   24 1   
    18    7   42 1   
    19    7   43 1   
    20    8    9 1   
    21    8   24 1   
    22    8   70 1   
    23    9   10 1   
    24    9   65 1   
    25   10   25 1   
    26   11   12 1   
    27   11   24 1   
    28   11   25 1   
    29   12   33 1   
    30   12   45 1   
    31   13   14 1   
    32   14   15 1   
    33   14   46 1   
    34   15   33 1   
    35   16   26 1   
    36   16   29 1   
    37   17   18 1   
    38   17   22 1   
    39   18   27 1   
    40   19   20 1   
    41   19   54 1   
    42   19   55 1   
    43   20   21 1   
    44   21   22 1   
    45   21   30 1   
    46   22   59 1   
    47   23   34 1   
    48   23   60 1   
    49   23   67 1   
    50   25   44 1   
    51   26   63 1   
    52   26   68 1   
    53   27   52 1   
    54   27   53 1   
    55   30   56 1   
    56   33   47 1   
    57   48   49 1   
    58   50   51 1   
    59   57   58 1   
    60   61   65 1   
    61   62   65 1   
    62   64   66 1   
    63   65   69 1   
@<TRIPOS>SUBSTRUCTURE
     1 BDK         1 TEMP              0 ****  ****    0 ROOT
