@<TRIPOS>MOLECULE
molecule
   44    45     1     0     0
SMALL
bcc


@<TRIPOS>ATOM
      1 O4           0.0000     0.0000     0.0000 o          1 BDL      -0.832800
      2 C15          1.2080     0.0000     0.0000 c          1 BDL       0.882600
      3 O3           1.8800     0.0060    -1.1620 o          1 BDL      -0.832800
      4 C17          1.9610     0.0000     1.3050 c3         1 BDL       0.132500
      5 C16          2.8420     1.2490     1.3850 c3         1 BDL      -0.066400
      6 C14          3.7110     1.1800     2.6430 c3         1 BDL      -0.084700
      7 C18          4.7050     0.0250     2.5140 c3         1 BDL      -0.086600
      8 C13          4.4750     2.4950     2.8070 c3         1 BDL      -0.086600
      9 N1           1.0100     0.0010     2.4180 n7         1 BDL      -0.877100
     10 S1           0.5660    -1.4280     3.1290 sy         1 BDL       1.418200
     11 O1          -0.3260    -1.0920     4.1820 o          1 BDL      -0.641300
     12 O2           0.2230    -2.3140     2.0720 o          1 BDL      -0.641300
     13 C7           2.0060    -2.1000     3.8920 ca         1 BDL      -0.298500
     14 C5           2.3060    -1.7770     5.2030 ca         1 BDL      -0.027000
     15 C3           3.4310    -2.3010     5.8050 ca         1 BDL      -0.149500
     16 C6           2.8290    -2.9530     3.1790 ca         1 BDL      -0.027000
     17 C4           3.9580    -3.4820     3.7720 ca         1 BDL      -0.149500
     18 C1           4.2670    -3.1560     5.0910 cp         1 BDL      -0.004000
     19 C2           5.4790    -3.7230     5.7340 cp         1 BDL      -0.031000
     20 C9           6.3150    -4.5780     5.0190 ca         1 BDL      -0.116500
     21 C12          7.4400    -5.1010     5.6220 ca         1 BDL      -0.131000
     22 C11          7.7400    -4.7770     6.9320 ca         1 BDL      -0.134000
     23 C10          6.9140    -3.9290     7.6470 ca         1 BDL      -0.131000
     24 C8           5.7880    -3.3950     7.0530 ca         1 BDL      -0.116500
     25 H17          2.5840    -0.8850     1.3620 h1         1 BDL       0.046700
     26 H16          2.2140     2.1310     1.4280 hc         1 BDL       0.057700
     27 H16A         3.4770     1.3000     0.5090 hc         1 BDL       0.057700
     28 H14          3.0800     1.0190     3.5090 hc         1 BDL       0.039700
     29 H18          5.4170     0.0680     3.3290 hc         1 BDL       0.026867
     30 H18A         4.1700    -0.9170     2.5510 hc         1 BDL       0.026867
     31 H18B         5.2310     0.1040     1.5700 hc         1 BDL       0.026867
     32 H13          5.0770     2.6760     1.9250 hc         1 BDL       0.026867
     33 H13A         5.1180     2.4330     3.6770 hc         1 BDL       0.026867
     34 H13B         3.7710     3.3090     2.9360 hc         1 BDL       0.026867
     35 HN1          0.5950     0.8600     2.7210 hn         1 BDL       0.448800
     36 H5           1.6550    -1.1120     5.7590 ha         1 BDL       0.156500
     37 H3           3.6660    -2.0450     6.8320 ha         1 BDL       0.129000
     38 H6           2.5880    -3.2070     2.1540 ha         1 BDL       0.156500
     39 H4           4.6030    -4.1490     3.2130 ha         1 BDL       0.129000
     40 H9           6.0810    -4.8320     3.9920 ha         1 BDL       0.137000
     41 H12          8.0900    -5.7660     5.0670 ha         1 BDL       0.125000
     42 H11          8.6240    -5.1920     7.4020 ha         1 BDL       0.122000
     43 H10          7.1540    -3.6770     8.6730 ha         1 BDL       0.125000
     44 H8           5.1410    -2.7310     7.6130 ha         1 BDL       0.137000
@<TRIPOS>BOND
     1     1     2 1
     2     2     3 1
     3     2     4 1
     4     4     5 1
     5     4     9 1
     6     5     6 1
     7     6     7 1
     8     6     8 1
     9     9    10 1
    10    10    11 2
    11    10    12 2
    12    10    13 1
    13    13    14 ar
    14    13    16 ar
    15    14    15 ar
    16    15    18 ar
    17    16    17 ar
    18    17    18 ar
    19    18    19 1
    20    19    20 ar
    21    19    24 ar
    22    20    21 ar
    23    21    22 ar
    24    22    23 ar
    25    23    24 ar
    26     4    25 1
    27     5    26 1
    28     5    27 1
    29     6    28 1
    30     7    29 1
    31     7    30 1
    32     7    31 1
    33     8    32 1
    34     8    33 1
    35     8    34 1
    36     9    35 1
    37    14    36 1
    38    15    37 1
    39    16    38 1
    40    17    39 1
    41    20    40 1
    42    21    41 1
    43    22    42 1
    44    23    43 1
    45    24    44 1
@<TRIPOS>SUBSTRUCTURE
     1 BDL         1 TEMP              0 ****  ****    0 ROOT
