@<TRIPOS>MOLECULE
BDM
   55    56     1     0     0
SMALL
bcc


@<TRIPOS>ATOM
      1 N1           0.0000     0.0000     0.0000 na         1 BDM       0.267100
      2 C2           1.3250     0.0000     0.0000 ca         1 BDM       0.294000
      3 N2           2.0000     0.0010    -1.2080 nv         1 BDM      -0.186900
      4 N3           2.0210     0.0000     1.1280 nb         1 BDM      -0.592000
      5 C4           1.4010     0.0040     2.3040 ca         1 BDM       0.494200
      6 N4           2.1300     0.0040     3.4820 nv         1 BDM      -0.382500
      7 C5           0.0040    -0.0020     2.3350 ca         1 BDM      -0.223600
      8 C6          -0.6810    -0.0010     1.1360 ca         1 BDM      -0.189300
      9 C7          -0.7370    -0.0020     3.6470 c3         1 BDM       0.100200
     10 C8          -0.8760     1.4130     4.1460 ca         1 BDM      -0.032300
     11 C9           0.0990     1.9560     4.9610 ca         1 BDM      -0.270000
     12 C10         -0.0270     3.2580     5.4220 ca         1 BDM       0.230100
     13 O10          0.9330     3.7910     6.2240 os         1 BDM      -0.237900
     14 C11         -1.1300     4.0170     5.0600 ca         1 BDM      -0.068900
     15 Br11        -1.3050     5.7930     5.6860 br         1 BDM      -0.054100
     16 C12         -2.1090     3.4680     4.2450 ca         1 BDM       0.193100
     17 O12         -3.1930     4.2080     3.8930 os         1 BDM      -0.259900
     18 C13         -1.9780     2.1650     3.7870 ca         1 BDM      -0.279000
     19 C14         -4.0040     3.3780     3.0580 c3         1 BDM       0.216700
     20 C15          1.9250     2.7800     6.4090 c3         1 BDM       0.165400
     21 C16          3.0400     3.3190     7.3080 c3         1 BDM      -0.048400
     22 C17          4.1030     2.2360     7.5060 c3         1 BDM      -0.002400
     23 C18          5.2180     2.7750     8.4050 c3         1 BDM      -0.157700
     24 C19          6.2170     1.6550     8.7050 c3         1 BDM       0.002600
     25 C20          7.2620     2.1580     9.7030 c3         1 BDM      -0.121400
     26 C21          5.9260     3.9050     7.7040 c          1 BDM       0.982600
     27 OXV          5.9470     5.0680     8.2290 o          1 BDM      -0.882300
     28 OXW          6.5030     3.7000     6.5860 o          1 BDM      -0.882300
     29 C22          8.2460     1.0550     9.9980 c          1 BDM       0.980600
     30 OX5          8.1170    -0.0820     9.4360 o          1 BDM      -0.873300
     31 OX6          9.2080     1.2600    10.8090 o          1 BDM      -0.873300
     32 HN1         -0.4930     0.0010    -0.8710 hn         1 BDM       0.131700
     33 HN21         2.3320     0.8620    -1.5950 hn         1 BDM       0.143700
     34 HN22         2.1840    -0.8630    -1.6790 hn         1 BDM       0.143700
     35 HN41         3.1200     0.1450     3.4570 hn         1 BDM       0.301300
     36 HN42         1.6740    -0.1910     4.3510 hn         1 BDM       0.301300
     37 H6          -1.7640    -0.0040     1.1240 h4         1 BDM       0.151000
     38 H71         -1.7210    -0.4340     3.5060 hc         1 BDM       0.031700
     39 H72         -0.1870    -0.5890     4.3730 hc         1 BDM       0.031700
     40 H9           0.9250     1.3410     5.2980 ha         1 BDM       0.147000
     41 H13         -2.7420     1.7360     3.1510 ha         1 BDM       0.129000
     42 H141        -4.3140     2.5010     3.6130 h1         1 BDM      -0.000967
     43 H142        -4.8800     3.9320     2.7400 h1         1 BDM      -0.000967
     44 H143        -3.4340     3.0740     2.1890 h1         1 BDM      -0.000967
     45 H151         1.4750     1.9120     6.8750 h1         1 BDM      -0.004300
     46 H152         2.3400     2.5010     5.4480 h1         1 BDM      -0.004300
     47 H161         3.4920     4.1870     6.8420 hc         1 BDM       0.046200
     48 H162         2.6260     3.5990     8.2690 hc         1 BDM       0.046200
     49 H171         3.6520     1.3680     7.9720 hc         1 BDM      -0.001300
     50 H172         4.5170     1.9560     6.5450 hc         1 BDM      -0.001300
     51 H18          4.7910     3.1360     9.3320 hc         1 BDM       0.023700
     52 H191         5.6930     0.8070     9.1280 hc         1 BDM       0.013700
     53 H192         6.7090     1.3550     7.7880 hc         1 BDM       0.013700
     54 H201         7.7870     3.0070     9.2800 hc         1 BDM       0.024200
     55 H202         6.7710     2.4580    10.6200 hc         1 BDM       0.024200
@<TRIPOS>BOND
     1     1     2 1   
     2     1     8 2   
     3     1    32 1   
     4     2     3 1   
     5     2     4 ar  
     6     3    33 1   
     7     3    34 1   
     8     4     5 ar  
     9     5     6 1   
    10     5     7 ar  
    11     6    35 1   
    12     6    36 1   
    13     7     8 ar  
    14     7     9 1   
    15     8    37 1   
    16     9    10 1   
    17     9    38 1   
    18     9    39 1   
    19    10    11 ar  
    20    10    18 ar  
    21    11    12 ar  
    22    11    40 1   
    23    12    13 1   
    24    12    14 ar  
    25    13    20 1   
    26    14    15 1   
    27    14    16 ar  
    28    16    17 1   
    29    16    18 ar  
    30    17    19 1   
    31    18    41 1   
    32    19    42 1   
    33    19    43 1   
    34    19    44 1   
    35    20    21 1   
    36    20    45 1   
    37    20    46 1   
    38    21    22 1   
    39    21    47 1   
    40    21    48 1   
    41    22    23 1   
    42    22    49 1   
    43    22    50 1   
    44    23    24 1   
    45    23    26 1   
    46    23    51 1   
    47    24    25 1   
    48    24    52 1   
    49    24    53 1   
    50    25    29 1   
    51    25    54 1   
    52    25    55 1   
    53    26    27 1   
    54    26    28 1   
    55    29    30 1   
    56    29    31 1   
@<TRIPOS>SUBSTRUCTURE
     1 BDM         1 TEMP              0 ****  ****    0 ROOT
