@<TRIPOS>MOLECULE
BDO
   40    41     1     0     0
SMALL
bcc


@<TRIPOS>ATOM
      1 C1           0.0000     0.0000     0.0000 c2         1 BDO       0.408800
      2 N1           1.3740     0.0000     0.0000 nu         1 BDO      -0.546200
      3 O1           0.3720     0.0010     3.3960 o          1 BDO      -0.630500
      4 C2           0.4940     0.0010     2.1900 c          1 BDO       0.633500
      5 N2          -0.4980     0.0010     1.2800 n          1 BDO      -0.001300
      6 C3           1.7930     0.0000     1.4110 c3         1 BDO       0.023200
      7 N3          -0.7350     0.0060    -1.0750 n2         1 BDO      -0.811100
      8 C4           2.6050    -1.2570     1.7270 c3         1 BDO      -0.020400
      9 C5           2.6050     1.2570     1.7270 c3         1 BDO       0.007900
     10 C6          -1.9250     0.0010     1.6120 c3         1 BDO       0.114300
     11 C7          -2.4150    -1.4190     1.7260 ca         1 BDO      -0.123300
     12 C8          -2.3680    -2.0700     2.9450 ca         1 BDO      -0.083000
     13 C9          -2.8180    -3.3730     3.0510 ca         1 BDO      -0.097000
     14 C10         -3.3140    -4.0250     1.9380 ca         1 BDO      -0.093000
     15 C11         -3.3620    -3.3740     0.7190 ca         1 BDO      -0.040600
     16 C12         -2.9160    -2.0690     0.6140 ca         1 BDO      -0.076000
     17 C13          1.4330    -2.6740     0.0350 c3         1 BDO      -0.008100
     18 C14          2.4610    -3.7300     2.0530 c3         1 BDO      -0.008100
     19 C15          1.7280    -2.4940     1.5260 c3         1 BDO      -0.064700
     20 H1           1.9720    -0.0000    -0.8020 hn         1 BDO       0.335800
     21 H2          -0.3010     0.0080    -1.9780 hn         1 BDO       0.334400
     22 H3           3.4610    -1.3090     1.0660 hc         1 BDO       0.032700
     23 H4           2.9450    -1.2180     2.7550 hc         1 BDO       0.032700
     24 H5           2.0260     2.1350     1.4690 hc         1 BDO       0.016700
     25 H6           2.8420     1.2780     2.7840 hc         1 BDO       0.016700
     26 H7           3.5230     1.2480     1.1510 hc         1 BDO       0.016700
     27 H8          -2.0750     0.5130     2.5550 h1         1 BDO       0.046200
     28 H9          -2.4770     0.5120     0.8320 h1         1 BDO       0.046200
     29 H10         -1.9790    -1.5600     3.8170 ha         1 BDO       0.121000
     30 H11         -2.7800    -3.8830     4.0060 ha         1 BDO       0.108000
     31 H12         -3.6640    -5.0470     2.0210 ha         1 BDO       0.113000
     32 H13         -2.9540    -1.5590    -0.3410 ha         1 BDO       0.136000
     33 H14          2.2320    -2.2310    -0.5470 hc         1 BDO       0.008033
     34 H15          1.3640    -3.7310    -0.1940 hc         1 BDO       0.008033
     35 H16          0.4960    -2.1890    -0.2090 hc         1 BDO       0.008033
     36 H17          3.4210    -3.8190     1.5600 hc         1 BDO       0.008033
     37 H18          2.6110    -3.6320     3.1210 hc         1 BDO       0.008033
     38 H19          1.8690    -4.6150     1.8510 hc         1 BDO       0.008033
     39 H20          0.7970    -2.3690     2.0650 hc         1 BDO       0.039700
     40 Cl1         -3.9840    -4.1930    -0.6800 cl         1 BDO      -0.028400
@<TRIPOS>BOND
     1     1     2 1   
     2     1     5 1   
     3     1     7 2   
     4     2     6 1   
     5     2    20 1   
     6     3     4 2   
     7     4     5 1   
     8     4     6 1   
     9     5    10 1   
    10     6     8 1   
    11     6     9 1   
    12     7    21 1   
    13     8    19 1   
    14     8    22 1   
    15     8    23 1   
    16     9    24 1   
    17     9    25 1   
    18     9    26 1   
    19    10    11 1   
    20    10    27 1   
    21    10    28 1   
    22    11    12 ar  
    23    11    16 ar  
    24    12    13 ar  
    25    12    29 1   
    26    13    14 ar  
    27    13    30 1   
    28    14    15 ar  
    29    14    31 1   
    30    15    16 ar  
    31    15    40 1   
    32    16    32 1   
    33    17    19 1   
    34    17    33 1   
    35    17    34 1   
    36    17    35 1   
    37    18    19 1   
    38    18    36 1   
    39    18    37 1   
    40    18    38 1   
    41    19    39 1   
@<TRIPOS>SUBSTRUCTURE
     1 BDO         1 TEMP              0 ****  ****    0 ROOT
