@<TRIPOS>MOLECULE
molecule
   60    62     1     0     0
SMALL
bcc


@<TRIPOS>ATOM
      1 C1           0.0000     0.0000     0.0000 c3         1 BDQ       0.164200
      2 N1           1.4720     0.0000     0.0000 nu         1 BDQ      -0.879200
      3 O1          -1.4970     0.0000     1.9280 o          1 BDQ      -0.602500
      4 C2           1.8650     0.0000     1.3150 c2         1 BDQ       0.697800
      5 N2           0.7790    -0.0010     2.1580 n          1 BDQ      -0.430300
      6 O2           1.0730     7.6700     7.0690 o          1 BDQ      -0.649100
      7 C3          -0.3760     0.0000     1.4660 c          1 BDQ       0.698500
      8 N3           3.1030    -0.0000     1.7120 n2         1 BDQ      -0.917100
      9 C4          -0.5350    -1.2570    -0.6890 c3         1 BDQ      -0.088100
     10 N4           1.0700     5.4500     7.0050 ns         1 BDQ      -0.445900
     11 C5          -0.5350     1.2570    -0.6880 c3         1 BDQ      -0.189400
     12 N5           1.1910     6.6180     9.0220 ns         1 BDQ      -0.412100
     13 C6          -0.1030     2.4940     0.1000 c3         1 BDQ      -0.084700
     14 N6           1.0240    12.4390    12.4060 n1         1 BDQ      -0.361800
     15 C7           1.4140     2.6670    -0.0130 c3         1 BDQ      -0.107100
     16 C8          -0.8000     3.7320    -0.4690 c3         1 BDQ      -0.107100
     17 C9           0.8680     0.0000     3.6200 c3         1 BDQ       0.008300
     18 C10          0.8980     1.4210     4.1220 ca         1 BDQ      -0.043300
     19 C11         -0.2840     2.0720     4.4250 ca         1 BDQ      -0.121500
     20 C12         -0.2560     3.3750     4.8850 ca         1 BDQ      -0.120500
     21 C13          0.9520     4.0280     5.0420 ca         1 BDQ       0.011700
     22 C14          2.1330     3.3750     4.7400 ca         1 BDQ      -0.120500
     23 C15          2.1060     2.0720     4.2840 ca         1 BDQ      -0.121500
     24 C16          0.9820     5.4490     5.5430 c3         1 BDQ      -0.223700
     25 C17          1.1520     7.8250     9.7220 ca         1 BDQ       0.026600
     26 C18          0.4730     7.9030    10.9330 ca         1 BDQ      -0.116500
     27 C19          1.7980     8.9440     9.2110 ca         1 BDQ      -0.116500
     28 C20          0.4320     9.0910    11.6270 ca         1 BDQ      -0.092000
     29 C21          1.7630    10.1370     9.8990 ca         1 BDQ      -0.092000
     30 C22          1.1100     6.6170     7.6770 c          1 BDQ       0.659100
     31 C23          1.0760    10.2200    11.1140 ca         1 BDQ      -0.016000
     32 C24          1.0360    11.4580    11.8320 cg         1 BDQ       0.238800
     33 HN1          2.0610    -0.0040    -0.8090 hn         1 BDQ       0.495800
     34 HN3          3.3160    -0.0030     2.6900 hn         1 BDQ       0.409400
     35 H4          -0.1000    -1.3400    -1.6780 hc         1 BDQ       0.052033
     36 H4A         -1.6130    -1.1920    -0.7730 hc         1 BDQ       0.052033
     37 H4B         -0.2700    -2.1300    -0.1040 hc         1 BDQ       0.052033
     38 HN4          0.2670     5.6860     7.5540 hn         1 BDQ       0.241500
     39 H5          -0.9430     0.9930    -1.6570 hc         1 BDQ       0.101200
     40 H5A         -1.3130     1.7000    -0.0780 hc         1 BDQ       0.101200
     41 HN5          2.0690     6.1800     8.8290 hn         1 BDQ       0.300500
     42 H6           0.2170     2.1970     1.0920 hc         1 BDQ       0.094700
     43 H7           1.7280     3.5080     0.5940 hc         1 BDQ       0.041033
     44 H7A          1.9070     1.7670     0.3350 hc         1 BDQ       0.041033
     45 H7B          1.6810     2.8490    -1.0470 hc         1 BDQ       0.041033
     46 H8          -0.6130     3.7940    -1.5340 hc         1 BDQ       0.041033
     47 H8A         -1.8660     3.6580    -0.2920 hc         1 BDQ       0.041033
     48 H8B         -0.4140     4.6190     0.0180 hc         1 BDQ       0.041033
     49 H9          -0.0530     0.3890     4.0380 h1         1 BDQ       0.123200
     50 H9A          1.0250    -1.0120     3.9730 h1         1 BDQ       0.123200
     51 H11         -1.2300     1.5600     4.3010 ha         1 BDQ       0.158000
     52 H12         -1.1820     3.8850     5.1220 ha         1 BDQ       0.161500
     53 H14          3.0800     3.8860     4.8630 ha         1 BDQ       0.161500
     54 H15          3.0320     1.5600     4.0510 ha         1 BDQ       0.158000
     55 H16          0.2760     6.2070     5.2230 h1         1 BDQ       0.155700
     56 H16A         0.6460     4.4770     5.2010 h1         1 BDQ       0.155700
     57 H18         -0.0260     7.0280    11.3320 ha         1 BDQ       0.159500
     58 H19          2.3310     8.8790     8.2700 ha         1 BDQ       0.159500
     59 H20         -0.0970     9.1500    12.5700 ha         1 BDQ       0.146500
     60 H21          2.2670    11.0080     9.5000 ha         1 BDQ       0.146500
@<TRIPOS>BOND
     1     1     2 1
     2     1     7 1
     3     1     9 1
     4     1    11 1
     5     2     4 1
     6     3     7 2
     7     4     5 1
     8     4     8 2
     9     5     7 1
    10     5    17 1
    11     6    30 2
    12    10    24 1
    13    10    30 1
    14    11    13 1
    15    12    25 1
    16    12    30 1
    17    13    15 1
    18    13    16 1
    19    14    32 3
    20    17    18 1
    21    18    19 ar
    22    18    23 ar
    23    19    20 ar
    24    20    21 ar
    25    21    22 ar
    26    21    24 1
    27    22    23 ar
    28    25    26 ar
    29    25    27 ar
    30    26    28 ar
    31    27    29 ar
    32    28    31 ar
    33    29    31 ar
    34    31    32 1
    35     2    33 1
    36     8    34 1
    37     9    35 1
    38     9    36 1
    39     9    37 1
    40    10    38 1
    41    11    39 1
    42    11    40 1
    43    12    41 1
    44    13    42 1
    45    15    43 1
    46    15    44 1
    47    15    45 1
    48    16    46 1
    49    16    47 1
    50    16    48 1
    51    17    49 1
    52    17    50 1
    53    19    51 1
    54    20    52 1
    55    22    53 1
    56    23    54 1
    57    24    55 1
    58    24    56 1
    59    26    57 1
    60    27    58 1
    61    28    59 1
    62    29    60 1
@<TRIPOS>SUBSTRUCTURE
     1 BDQ         1 TEMP              0 ****  ****    0 ROOT
