@<TRIPOS>MOLECULE
BDQ
   60    63     1     0     0
SMALL
bcc


@<TRIPOS>ATOM
      1 C1           0.0000     0.0000     0.0000 c3         1 BDQ      -0.066000
      2 N1           1.4720     0.0000     0.0000 n7         1 BDQ      -0.035000
      3 O1          -1.4970     0.0000     1.9280 o          1 BDQ      -0.352000
      4 C2           1.8650     0.0000     1.3150 c2         1 BDQ      -0.024000
      5 N2           0.7790    -0.0010     2.1580 n          1 BDQ       0.117000
      6 O2           1.0730     7.6700     7.0690 o          1 BDQ      -0.458000
      7 C3          -0.3760     0.0000     1.4660 c2         1 BDQ       0.266000
      8 N3           3.1030    -0.0000     1.7120 n2         1 BDQ      -0.292000
      9 C4          -0.5350    -1.2570    -0.6890 c3         1 BDQ      -0.112000
     10 N4           1.0700     5.4500     7.0050 ns         1 BDQ       0.002000
     11 C5          -0.5350     1.2570    -0.6880 c3         1 BDQ      -0.098000
     12 N5           1.1910     6.6180     9.0220 ns         1 BDQ       0.086000
     13 C6          -0.1030     2.4940     0.1000 c3         1 BDQ      -0.411000
     14 N6           1.0170    12.4480    12.3890 n1         1 BDQ      -0.062000
     15 C7           1.4140     2.6670    -0.0130 c3         1 BDQ      -0.131000
     16 C8          -0.8000     3.7320    -0.4690 DU         1 BDQ       0.022000
     17 C9           0.8680     0.0000     3.6200 c3         1 BDQ      -0.009000
     18 C10          0.8980     1.4210     4.1220 ca         1 BDQ      -0.108000
     19 C11         -0.2840     2.0720     4.4250 ca         1 BDQ      -0.076000
     20 C12         -0.2560     3.3750     4.8850 ca         1 BDQ      -0.095000
     21 C13          0.9520     4.0280     5.0420 ca         1 BDQ      -0.112000
     22 C14          2.1330     3.3750     4.7400 ca         1 BDQ      -0.095000
     23 C15          2.1060     2.0720     4.2840 ca         1 BDQ      -0.076000
     24 C16          0.9820     5.4490     5.5430 c3         1 BDQ      -0.020000
     25 C17          1.1520     7.8250     9.7220 ca         1 BDQ      -0.052000
     26 C18          0.4730     7.9030    10.9330 ca         1 BDQ      -0.108500
     27 C19          1.7980     8.9440     9.2110 ca         1 BDQ      -0.108500
     28 C20          0.4320     9.0910    11.6270 ca         1 BDQ      -0.059500
     29 C21          1.7630    10.1370     9.8990 ca         1 BDQ      -0.059500
     30 C22          1.1100     6.6170     7.6770 c2         1 BDQ       0.179000
     31 C23          1.0760    10.2200    11.1140 ca         1 BDQ       0.018000
     32 C24          1.0360    11.4580    11.8320 c1         1 BDQ      -0.094000
     33 HN1          2.0610    -0.0050    -0.8090 hn         1 BDQ       0.126000
     34 HN3          3.8440     0.0130     1.0400 hn         1 BDQ       0.087000
     35 H4          -0.2090    -2.1340    -0.1430 hc         1 BDQ       0.054667
     36 H4A         -1.6170    -1.2250    -0.7090 hc         1 BDQ       0.054667
     37 H4B         -0.1560    -1.3020    -1.7030 hc         1 BDQ       0.054667
     38 HN4          1.4410     4.6540     7.4850 hn         1 BDQ       0.076000
     39 H5          -0.2850     1.2260    -1.7420 hc         1 BDQ       0.065500
     40 H5A         -1.6110     1.3020    -0.5740 hc         1 BDQ       0.065500
     41 HN5          1.6470     5.8220     9.4220 hn         1 BDQ       0.072000
     42 H6           0.1690     3.2850    -0.5890 DU         1 BDQ       0.222000
     43 H7           1.7200     3.5450     0.5440 hc         1 BDQ       0.053333
     44 H7A          1.9080     1.7930     0.3920 hc         1 BDQ       0.053333
     45 H7B          1.6870     2.7870    -1.0540 hc         1 BDQ       0.053333
     46 H8          -0.5760     4.5900     0.1530 ha         1 BDQ       0.042333
     47 H8A         -1.8710     3.5670    -0.4850 ha         1 BDQ       0.042333
     48 H8B         -0.4470     3.9140    -1.4770 ha         1 BDQ       0.042333
     49 H9           1.7710    -0.5140     3.9270 h1         1 BDQ       0.081500
     50 H9A          0.0060    -0.5070     4.0350 h1         1 BDQ       0.081500
     51 H11         -1.2300     1.5600     4.3010 ha         1 BDQ       0.123500
     52 H12         -1.1820     3.8850     5.1220 ha         1 BDQ       0.108000
     53 H14          3.0810     3.8860     4.8630 ha         1 BDQ       0.108000
     54 H15          3.0330     1.5600     4.0510 ha         1 BDQ       0.123500
     55 H16          1.9700     5.5920     5.1220 h1         1 BDQ       0.074000
     56 H16A         0.3320     6.2540     5.2200 h1         1 BDQ       0.074000
     57 H18         -0.0260     7.0280    11.3320 ha         1 BDQ       0.129000
     58 H19          2.3310     8.8790     8.2700 ha         1 BDQ       0.129000
     59 H20         -0.0970     9.1500    12.5700 ha         1 BDQ       0.113500
     60 H21          2.2670    11.0080     9.5000 ha         1 BDQ       0.113500
@<TRIPOS>BOND
     1     1     2 1   
     2     1     7 1   
     3     1     9 1   
     4     1    11 1   
     5     2     4 1   
     6     2    33 1   
     7     3     7 1   
     8     4     5 1   
     9     4     8 1   
    10     5     7 1   
    11     5    17 1   
    12     6    30 1   
    13     8    34 1   
    14     9    35 1   
    15     9    36 1   
    16     9    37 1   
    17    10    24 1   
    18    10    30 1   
    19    10    38 1   
    20    11    13 1   
    21    11    39 1   
    22    11    40 1   
    23    12    25 1   
    24    12    30 1   
    25    12    41 1   
    26    13    15 1   
    27    13    16 1   
    28    13    42 1   
    29    14    32 1   
    30    15    43 1   
    31    15    44 1   
    32    15    45 1   
    33    16    42 1   
    34    16    46 1   
    35    16    47 1   
    36    16    48 1   
    37    17    18 1   
    38    17    49 1   
    39    17    50 1   
    40    18    19 1   
    41    18    23 1   
    42    19    20 1   
    43    19    51 1   
    44    20    21 1   
    45    20    52 1   
    46    21    22 1   
    47    21    24 1   
    48    22    23 1   
    49    22    53 1   
    50    23    54 1   
    51    24    55 1   
    52    24    56 1   
    53    25    26 1   
    54    25    27 1   
    55    26    28 1   
    56    26    57 1   
    57    27    29 1   
    58    27    58 1   
    59    28    31 1   
    60    28    59 1   
    61    29    31 1   
    62    29    60 1   
    63    31    32 1   
@<TRIPOS>SUBSTRUCTURE
     1 BDQ         1 TEMP              0 ****  ****    0 ROOT
