@<TRIPOS>MOLECULE
molecule
   44    47     1     0     0
SMALL
bcc


@<TRIPOS>ATOM
      1 C1           1.5070     0.0000     0.0000 c3         1 BDS      -0.147200
      2 C2           0.0000     0.0000     0.0000 c          1 BDS       0.912100
      3 O3          -0.6050    -1.0390     0.1120 o          1 BDS      -0.856800
      4 O4          -0.6710     1.1570    -0.1240 o          1 BDS      -0.856800
      5 C5           2.0160     0.0000     1.4420 c3         1 BDS      -0.029600
      6 C6           1.5770     1.2680     2.1300 ca         1 BDS      -0.013800
      7 C7           0.4180     1.2790     2.8820 ca         1 BDS      -0.074000
      8 C8           0.0110     2.4390     3.5140 ca         1 BDS      -0.110000
      9 C9           0.7670     3.5930     3.3960 ca         1 BDS       0.005600
     10 O10          0.5920     4.8460     3.9100 os         1 BDS      -0.353400
     11 C11          1.4430     5.7040     3.1290 c3         1 BDS       0.333200
     12 O12          2.4930     4.8270     2.6790 os         1 BDS      -0.349900
     13 C13          1.9360     3.5820     2.6400 ca         1 BDS       0.025600
     14 C14          2.3390     2.4150     2.0120 ca         1 BDS      -0.108500
     15 C15          2.0170    -1.2480    -0.7200 c3         1 BDS      -0.147200
     16 C16          1.4350    -1.3000    -2.1090 c          1 BDS       0.912100
     17 O17          1.2700    -0.2770    -2.7330 o          1 BDS      -0.856800
     18 O18          1.0990    -2.4800    -2.6540 o          1 BDS      -0.856800
     19 C19          3.5420    -1.2000    -0.8080 c3         1 BDS      -0.029600
     20 C20          4.0440    -2.4310    -1.5180 ca         1 BDS      -0.013800
     21 C21          4.1960    -2.4200    -2.8920 ca         1 BDS      -0.074000
     22 C22          4.6560    -3.5470    -3.5470 ca         1 BDS      -0.110000
     23 C23          4.9680    -4.6900    -2.8290 ca         1 BDS       0.005600
     24 O24          5.4320    -5.9100    -3.2250 os         1 BDS      -0.353400
     25 C25          5.1740    -6.7970    -2.1220 c3         1 BDS       0.333200
     26 O26          5.1830    -5.9270    -0.9750 os         1 BDS      -0.349900
     27 C27          4.8150    -4.6990    -1.4450 ca         1 BDS       0.025600
     28 C28          4.3580    -3.5650    -0.7940 ca         1 BDS      -0.108500
     29 HC11         1.8680     0.8850    -0.5110 hc         1 BDS       0.061700
     30 HC51         3.0980    -0.0560     1.4440 hc         1 BDS       0.027200
     31 HC52         1.6100    -0.8550     1.9690 hc         1 BDS       0.027200
     32 HC71        -0.1620     0.3710     2.9950 ha         1 BDS       0.158500
     33 HC81        -0.8980     2.4450     4.1030 ha         1 BDS       0.119500
     34 H111         0.8960     6.0890     2.2770 h2         1 BDS       0.048450
     35 H112         1.8590     6.4820     3.7580 h2         1 BDS       0.048450
     36 H141         3.2710     2.3920     1.4610 ha         1 BDS       0.131000
     37 H151         1.7150    -2.1310    -0.1700 hc         1 BDS       0.061700
     38 H191         3.8450    -0.3170    -1.3580 hc         1 BDS       0.027200
     39 H192         3.9600    -1.1640     0.1910 hc         1 BDS       0.027200
     40 H211         3.9820    -1.5180    -3.4520 ha         1 BDS       0.158500
     41 H221         4.7750    -3.5360    -4.6240 ha         1 BDS       0.119500
     42 H251         5.9740    -7.5230    -2.0390 h2         1 BDS       0.048450
     43 H252         4.1960    -7.2480    -2.2330 h2         1 BDS       0.048450
     44 H281         4.2680    -3.5600     0.2860 ha         1 BDS       0.131000
@<TRIPOS>BOND
     1     1     2 1
     2     1     5 1
     3     1    15 1
     4     1    29 1
     5     2     3 1
     6     2     4 1
     7     5     6 1
     8     5    30 1
     9     5    31 1
    10     6     7 ar
    11     6    14 ar
    12     7     8 ar
    13     7    32 1
    14     8     9 ar
    15     8    33 1
    16     9    10 1
    17     9    13 ar
    18    10    11 1
    19    11    12 1
    20    11    34 1
    21    11    35 1
    22    12    13 1
    23    13    14 ar
    24    14    36 1
    25    15    16 1
    26    15    19 1
    27    15    37 1
    28    16    17 1
    29    16    18 1
    30    19    20 1
    31    19    38 1
    32    19    39 1
    33    20    21 ar
    34    20    28 ar
    35    21    22 ar
    36    21    40 1
    37    22    23 ar
    38    22    41 1
    39    23    24 1
    40    23    27 ar
    41    24    25 1
    42    25    26 1
    43    25    42 1
    44    25    43 1
    45    26    27 1
    46    27    28 ar
    47    28    44 1
@<TRIPOS>SUBSTRUCTURE
     1 BDS         1 TEMP              0 ****  ****    0 ROOT
