@<TRIPOS>MOLECULE
BDS
   44    47     1     0     0
SMALL
bcc


@<TRIPOS>ATOM
      1 C1          1.3370   -0.2600    0.1390 c3        1 BDS     -0.148700
      2 C2          0.6030   -1.2720    1.0480 c         1 BDS      0.900600
      3 O3          1.2620   -2.0580    1.7940 o         1 BDS     -0.867300
      4 O4         -0.6670   -1.2440    1.0600 o         1 BDS     -0.867300
      5 C5          2.2630    0.6120    0.9760 c3        1 BDS     -0.060100
      6 C6          1.6030    1.7520    1.6710 ca        1 BDS     -0.012300
      7 C7          0.2610    1.7000    2.0730 ca        1 BDS     -0.130000
      8 C8         -0.3590    2.7550    2.7610 ca        1 BDS     -0.115000
      9 C9          0.4220    3.8610    3.0310 ca        1 BDS      0.000100
     10 O10         0.0780    5.0470    3.6960 os        1 BDS     -0.358900
     11 C11         1.2560    5.8720    3.6910 c3        1 BDS      0.326200
     12 O12         2.3140    5.1570    3.0300 os        1 BDS     -0.354900
     13 C13         1.7740    3.9270    2.6270 ca        1 BDS      0.025100
     14 C14         2.3890    2.8970    1.9450 ca        1 BDS     -0.120000
     15 C15         2.0870   -0.9530   -1.0000 c3        1 BDS     -0.148700
     16 C16         2.5640    0.0520   -2.0740 c         1 BDS      0.900600
     17 O17         3.4830    0.8840   -1.8080 o         1 BDS     -0.867300
     18 O18         2.0460   -0.0290   -3.2310 o         1 BDS     -0.867300
     19 C19         3.2690   -1.7630   -0.4860 c3        1 BDS     -0.060100
     20 C20         3.6720   -2.9110   -1.3470 ca        1 BDS     -0.012300
     21 C21         3.4740   -2.9040   -2.7350 ca        1 BDS     -0.130000
     22 C22         3.8840   -3.9640   -3.5580 ca        1 BDS     -0.115000
     23 C23         4.5010   -5.0300   -2.9320 ca        1 BDS      0.000100
     24 O24         5.0100   -6.2110   -3.4910 os        1 BDS     -0.358900
     25 C25         5.5300   -6.9880   -2.3970 c3        1 BDS      0.326200
     26 O26         5.3410   -6.2470   -1.1790 os        1 BDS     -0.354900
     27 C27         4.7000   -5.0510   -1.5340 ca        1 BDS      0.025100
     28 C28         4.2950   -4.0150   -0.7180 ca        1 BDS     -0.120000
     29 HC11        0.5550    0.3920   -0.3410 hc        1 BDS      0.050700
     30 HC51        2.7460   -0.0390    1.7580 hc        1 BDS      0.079700
     31 HC52        3.0770    1.0130    0.3040 hc        1 BDS      0.079700
     32 HC71       -0.3320    0.7890    1.8370 ha        1 BDS      0.214000
     33 HC81       -1.4100    2.6960    3.0660 ha        1 BDS      0.133000
     34 H111        1.0390    6.8070    3.1160 h2        1 BDS      0.038200
     35 H112        1.5620    6.0680    4.7490 h2        1 BDS      0.038200
     36 H141        3.4320    2.9570    1.6130 ha        1 BDS      0.151000
     37 H151        1.3510   -1.6490   -1.4910 hc        1 BDS      0.050700
     38 H191        3.0160   -2.1480    0.5440 hc        1 BDS      0.079700
     39 H192        4.1540   -1.0730   -0.3930 hc        1 BDS      0.079700
     40 H211        2.9760   -2.0240   -3.1990 ha        1 BDS      0.214000
     41 H221        3.7200   -3.9410   -4.6410 ha        1 BDS      0.133000
     42 H251        6.6260   -7.1430   -2.5570 h2        1 BDS      0.038200
     43 H252        4.9560   -7.9450   -2.3300 h2        1 BDS      0.038200
     44 H281        4.4310   -4.0400    0.3710 ha        1 BDS      0.151000
@<TRIPOS>BOND
     1    1    2 1   
     2    1    5 1   
     3    1   15 1   
     4    1   29 1   
     5    2    3 1   
     6    2    4 1   
     7    5    6 1   
     8    5   30 1   
     9    5   31 1   
    10    6    7 ar  
    11    6   14 ar  
    12    7    8 ar  
    13    7   32 1   
    14    8    9 ar  
    15    8   33 1   
    16    9   10 1   
    17    9   13 ar  
    18   10   11 1   
    19   11   12 1   
    20   11   34 1   
    21   11   35 1   
    22   12   13 1   
    23   13   14 ar  
    24   14   36 1   
    25   15   16 1   
    26   15   19 1   
    27   15   37 1   
    28   16   17 1   
    29   16   18 1   
    30   19   20 1   
    31   19   38 1   
    32   19   39 1   
    33   20   21 ar  
    34   20   28 ar  
    35   21   22 ar  
    36   21   40 1   
    37   22   23 ar  
    38   22   41 1   
    39   23   24 1   
    40   23   27 ar  
    41   24   25 1   
    42   25   26 1   
    43   25   42 1   
    44   25   43 1   
    45   26   27 1   
    46   27   28 ar  
    47   28   44 1   
@<TRIPOS>SUBSTRUCTURE
     1 BDS         1 TEMP              0 ****  ****    0 ROOT
