@<TRIPOS>MOLECULE
molecule
   51    54     1     0     0
SMALL
bcc


@<TRIPOS>ATOM
      1 C1           0.0000     0.0000     0.0000 c3         1 BDT      -0.065400
      2 C2           1.5320     0.0000     0.0000 c3         1 BDT      -0.184400
      3 C3           2.0100     0.0000     1.4360 c          1 BDT       0.568100
      4 O3           2.8160    -0.8120     1.8210 o          1 BDT      -0.525100
      5 C4           1.4510     1.0460     2.3760 c3         1 BDT      -0.183400
      6 C5          -0.0790     1.0120     2.2930 c3         1 BDT      -0.050700
      7 C6          -0.6460     2.1740     3.1150 c3         1 BDT      -0.078400
      8 C7          -0.1050     3.4960     2.5660 c3         1 BDT      -0.079400
      9 C8          -0.5310     3.6540     1.1060 c3         1 BDT      -0.058700
     10 C9           0.0410     2.4870     0.2840 c3         1 BDT      -0.057700
     11 C10         -0.5120     1.1730     0.8340 c3         1 BDT      -0.059000
     12 C11         -0.3020     2.6230    -1.1950 c3         1 BDT      -0.082400
     13 C12          0.1550     3.9810    -1.7540 c3         1 BDT      -0.064400
     14 C13         -0.5170     5.0600    -0.9260 c3         1 BDT      -0.065000
     15 C14          0.0310     4.9340     0.5210 c3         1 BDT      -0.069700
     16 C15         -0.4100     6.2370     1.1790 c3         1 BDT      -0.073400
     17 C16         -0.4650     7.2760     0.0310 c3         1 BDT      -0.105400
     18 C17         -0.1370     6.5030    -1.2760 c3         1 BDT       0.152100
     19 O17         -0.9300     6.9860    -2.3620 oh         1 BDT      -0.599800
     20 C18         -2.0350     4.8740    -0.9410 c3         1 BDT      -0.078100
     21 C19         -2.0400     1.2150     0.7620 c3         1 BDT      -0.089100
     22 H1          -0.3590    -0.9280     0.4270 hc         1 BDT       0.051200
     23 H1A         -0.3590     0.0980    -1.0170 hc         1 BDT       0.051200
     24 H2           1.8950    -0.8870    -0.5040 hc         1 BDT       0.068200
     25 H2A          1.8960     0.8870    -0.5040 hc         1 BDT       0.068200
     26 H4           1.7650     0.8270     3.3890 hc         1 BDT       0.071700
     27 H4A          1.8090     2.0250     2.0820 hc         1 BDT       0.071700
     28 H5          -0.4470     0.0710     2.6840 hc         1 BDT       0.058700
     29 H6          -0.3440     2.0630     4.1500 hc         1 BDT       0.046200
     30 H6A         -1.7270     2.1700     3.0460 hc         1 BDT       0.046200
     31 H7           0.9760     3.4960     2.6280 hc         1 BDT       0.044200
     32 H7A         -0.5060     4.3170     3.1480 hc         1 BDT       0.044200
     33 H8          -1.6120     3.6600     1.0350 hc         1 BDT       0.067700
     34 H9           1.1190     2.4820     0.3910 hc         1 BDT       0.050700
     35 H11          0.1910     1.8310    -1.7460 hc         1 BDT       0.047700
     36 H11A        -1.3750     2.5340    -1.3180 hc         1 BDT       0.047700
     37 H12          1.2310     4.0700    -1.6690 hc         1 BDT       0.044700
     38 H12A        -0.1470     4.0720    -2.7900 hc         1 BDT       0.044700
     39 H14          1.1130     4.8820     0.4990 hc         1 BDT       0.051700
     40 H15          0.3140     6.5430     1.9250 hc         1 BDT       0.045200
     41 H15A        -1.3900     6.1190     1.6240 hc         1 BDT       0.045200
     42 H16          0.2720     8.0520     0.1980 hc         1 BDT       0.050700
     43 H16A        -1.4580     7.7060    -0.0320 hc         1 BDT       0.050700
     44 H17          0.9200     6.5740    -1.5040 h1         1 BDT       0.037700
     45 HO17        -0.4110     7.5630    -2.8970 ho         1 BDT       0.399000
     46 H18         -2.4810     5.4810    -0.1620 hc         1 BDT       0.042367
     47 H18A        -2.4260     5.1790    -1.9040 hc         1 BDT       0.042367
     48 H18B        -2.2730     3.8320    -0.7680 hc         1 BDT       0.042367
     49 H19         -2.3990     2.1260     1.2260 hc         1 BDT       0.039033
     50 H19A        -2.4490     0.3580     1.2840 hc         1 BDT       0.039033
     51 H19B        -2.3540     1.1900    -0.2750 hc         1 BDT       0.039033
@<TRIPOS>BOND
     1     1     2 1
     2     1    11 1
     3     2     3 1
     4     3     4 2
     5     3     5 1
     6     5     6 1
     7     6     7 1
     8     6    11 1
     9     7     8 1
    10     8     9 1
    11     9    10 1
    12     9    15 1
    13    10    11 1
    14    10    12 1
    15    11    21 1
    16    12    13 1
    17    13    14 1
    18    14    15 1
    19    14    18 1
    20    14    20 1
    21    15    16 1
    22    16    17 1
    23    17    18 1
    24    18    19 1
    25     1    22 1
    26     1    23 1
    27     2    24 1
    28     2    25 1
    29     5    26 1
    30     5    27 1
    31     6    28 1
    32     7    29 1
    33     7    30 1
    34     8    31 1
    35     8    32 1
    36     9    33 1
    37    10    34 1
    38    12    35 1
    39    12    36 1
    40    13    37 1
    41    13    38 1
    42    15    39 1
    43    16    40 1
    44    16    41 1
    45    17    42 1
    46    17    43 1
    47    18    44 1
    48    19    45 1
    49    20    46 1
    50    20    47 1
    51    20    48 1
    52    21    49 1
    53    21    50 1
    54    21    51 1
@<TRIPOS>SUBSTRUCTURE
     1 BDT         1 TEMP              0 ****  ****    0 ROOT
