@<TRIPOS>MOLECULE
BDT
   51    54     1     0     0
SMALL
bcc


@<TRIPOS>ATOM
      1 C1          0.1240   -0.0390    0.0550 c3        1 BDT     -0.069400
      2 C2          1.6290   -0.1330    0.1550 c3        1 BDT     -0.182400
      3 C3          2.0730   -0.1550    1.5880 c         1 BDT      0.571100
      4 O3          2.8970   -0.9700    2.0130 o         1 BDT     -0.534100
      5 C4          1.4760    0.9090    2.4610 c3        1 BDT     -0.181400
      6 C5         -0.0320    1.0380    2.2990 c3        1 BDT     -0.046700
      7 C6         -0.5370    2.2140    3.1230 c3        1 BDT     -0.074400
      8 C7         -0.1560    3.5510    2.5270 c3        1 BDT     -0.074400
      9 C8         -0.6010    3.6630    1.0790 c3        1 BDT     -0.046700
     10 C9         -0.0480    2.4940    0.2440 c3        1 BDT     -0.045700
     11 C10        -0.4830    1.1390    0.8280 c3        1 BDT     -0.039000
     12 C11        -0.3940    2.6400   -1.2340 c3        1 BDT     -0.074400
     13 C12        -0.0450    3.9990   -1.8210 c3        1 BDT     -0.063400
     14 C13        -0.6380    5.1180   -0.9840 c3        1 BDT     -0.044000
     15 C14        -0.1010    4.9490    0.4570 c3        1 BDT     -0.067700
     16 C15        -0.4040    6.2810    1.1310 c3        1 BDT     -0.068400
     17 C16        -0.2460    7.3200    0.0180 c3        1 BDT     -0.117400
     18 C17        -0.1260    6.5430   -1.3120 c3        1 BDT      0.141100
     19 O17        -0.9120    7.1130   -2.3430 oh        1 BDT     -0.591800
     20 C18        -2.1540    5.1090   -1.0790 c3        1 BDT     -0.076100
     21 C19        -1.9980    0.9590    0.7620 c3        1 BDT     -0.089100
     22 H1         -0.1720    0.0260   -1.0240 hc        1 BDT      0.048700
     23 H1A        -0.3220   -0.9880    0.4590 hc        1 BDT      0.048700
     24 H2          1.9860   -1.0580   -0.3700 hc        1 BDT      0.069200
     25 H2A         2.1110    0.7480   -0.3480 hc        1 BDT      0.069200
     26 H4          1.9800    1.8790    2.1990 hc        1 BDT      0.070200
     27 H4A         1.7110    0.6900    3.5370 hc        1 BDT      0.070200
     28 H5         -0.4950    0.0990    2.7220 hc        1 BDT      0.051700
     29 H6         -0.1220    2.1400    4.1630 hc        1 BDT      0.043700
     30 H6A        -1.6540    2.1470    3.2040 hc        1 BDT      0.043700
     31 H7          0.9540    3.6990    2.5930 hc        1 BDT      0.040700
     32 H7A        -0.6330    4.3750    3.1210 hc        1 BDT      0.040700
     33 H8         -1.7250    3.6490    1.0510 hc        1 BDT      0.059700
     34 H9          1.0780    2.5390    0.3250 hc        1 BDT      0.042700
     35 H11         0.1670    1.8620   -1.8160 hc        1 BDT      0.042700
     36 H11A       -1.4880    2.4460   -1.3850 hc        1 BDT      0.042700
     37 H12         1.0700    4.1150   -1.8680 hc        1 BDT      0.044700
     38 H12A       -0.4360    4.0620   -2.8700 hc        1 BDT      0.044700
     39 H14         1.0250    4.8690    0.3900 hc        1 BDT      0.044700
     40 H15        -1.4430    6.2930    1.5420 hc        1 BDT      0.044700
     41 H15A        0.3010    6.4760    1.9750 hc        1 BDT      0.044700
     42 H16         0.6640    7.9450    0.1820 hc        1 BDT      0.048200
     43 H16A       -1.1330    7.9990   -0.0170 hc        1 BDT      0.048200
     44 H17         0.9470    6.4990   -1.6470 h1        1 BDT      0.034700
     45 HO17       -0.6040    8.0210   -2.4490 ho        1 BDT      0.399000
     46 H18        -2.5840    5.9040   -0.4240 hc        1 BDT      0.040367
     47 H18A       -2.5790    4.1230   -0.7750 hc        1 BDT      0.040367
     48 H18B       -2.4590    5.3190   -2.1340 hc        1 BDT      0.040367
     49 H19        -2.2970    0.0230    1.2950 hc        1 BDT      0.037700
     50 H19A       -2.5320    1.8150    1.2360 hc        1 BDT      0.037700
     51 H19B       -2.3340    0.8770   -0.3000 hc        1 BDT      0.037700
@<TRIPOS>BOND
     1    1    2 1   
     2    1   11 1   
     3    1   22 1   
     4    1   23 1   
     5    2    3 1   
     6    2   24 1   
     7    2   25 1   
     8    3    4 2   
     9    3    5 1   
    10    5    6 1   
    11    5   26 1   
    12    5   27 1   
    13    6    7 1   
    14    6   11 1   
    15    6   28 1   
    16    7    8 1   
    17    7   29 1   
    18    7   30 1   
    19    8    9 1   
    20    8   31 1   
    21    8   32 1   
    22    9   10 1   
    23    9   15 1   
    24    9   33 1   
    25   10   11 1   
    26   10   12 1   
    27   10   34 1   
    28   11   21 1   
    29   12   13 1   
    30   12   35 1   
    31   12   36 1   
    32   13   14 1   
    33   13   37 1   
    34   13   38 1   
    35   14   15 1   
    36   14   18 1   
    37   14   20 1   
    38   15   16 1   
    39   15   39 1   
    40   16   17 1   
    41   16   40 1   
    42   16   41 1   
    43   17   18 1   
    44   17   42 1   
    45   17   43 1   
    46   18   19 1   
    47   18   44 1   
    48   19   45 1   
    49   20   46 1   
    50   20   47 1   
    51   20   48 1   
    52   21   49 1   
    53   21   50 1   
    54   21   51 1   
@<TRIPOS>SUBSTRUCTURE
     1 BDT         1 TEMP              0 ****  ****    0 ROOT
