@<TRIPOS>MOLECULE
BDU
   65    67     1     0     0
SMALL
bcc


@<TRIPOS>ATOM
      1 CX1          1.5050     0.0000     0.0000 c          1 BDU       0.935600
      2 O1A          2.2060    -0.8230    -0.5710 o          1 BDU      -0.876300
      3 O1B          1.9840     1.0400     0.7250 o          1 BDU      -0.876300
      4 CX2          0.0000     0.0000     0.0000 c3         1 BDU       0.265600
      5 OX2         -0.3500     0.0000     1.3840 os         1 BDU      -0.378600
      6 CO2          0.1640    -1.1460     2.0430 c3         1 BDU       0.232700
      7 CX3         -0.5680     1.2820    -0.6040 c3         1 BDU      -0.072400
      8 CX4         -0.4130     1.3220    -2.1200 c3         1 BDU       0.189100
      9 OX4         -1.1490     2.4420    -2.6080 oh         1 BDU      -0.594800
     10 CX5         -0.9380     0.0300    -2.7520 c3         1 BDU      -0.037300
     11 NX5         -0.6510     0.0180    -4.1690 ns         1 BDU      -0.184900
     12 C10         -1.6340    -0.0130    -5.1380 c          1 BDU       0.587100
     13 O10         -2.8450    -0.0330    -4.9480 o          1 BDU      -0.627100
     14 C11         -1.1090    -0.0180    -6.5360 c3         1 BDU      -0.092100
     15 CX6         -0.3330    -1.1990    -2.0540 c3         1 BDU       0.158100
     16 OX6         -0.5440    -1.1420    -0.6370 os         1 BDU      -0.433600
     17 CX7         -0.9700    -2.5000    -2.5360 c3         1 BDU       0.195100
     18 OX7         -2.3830    -2.3930    -2.3490 oh         1 BDU      -0.577800
     19 CX8         -0.4710    -3.7460    -1.7910 c3         1 BDU       0.135100
     20 OX8          0.9550    -3.8020    -1.8950 oh         1 BDU      -0.571800
     21 CX9         -1.0270    -5.0770    -2.2970 c3         1 BDU       0.003000
     22 NX6         -0.6820    -5.3450    -3.6670 ns         1 BDU      -0.193900
     23 C12         -1.6380    -5.5240    -4.6600 c          1 BDU       0.599700
     24 O12         -2.8510    -5.4730    -4.4780 o          1 BDU      -0.625100
     25 C1G         -1.1190    -5.8210    -6.0200 ca         1 BDU      -0.153600
     26 CD1         -1.9100    -6.5390    -6.8910 ca         1 BDU      -0.061500
     27 CE1         -1.4240    -6.8180    -8.1690 ca         1 BDU      -0.101000
     28 CD2          0.1370    -5.3670    -6.3680 ca         1 BDU      -0.061500
     29 CE2          0.6230    -5.6460    -7.6450 ca         1 BDU      -0.101000
     30 C1Z         -0.1570    -6.3720    -8.5450 cp         1 BDU      -0.034000
     31 C2G          0.3460    -6.6600    -9.8700 cp         1 BDU      -0.035000
     32 CY1          1.0720    -7.8290   -10.1020 ca         1 BDU      -0.087000
     33 CY2          0.1050    -5.7700   -10.9170 ca         1 BDU      -0.087000
     34 CG1          1.5580    -8.1070   -11.3800 ca         1 BDU      -0.104500
     35 CG2          0.5890    -6.0490   -12.1950 ca         1 BDU      -0.104500
     36 C2Z          1.3160    -7.2170   -12.4260 ca         1 BDU      -0.106000
     37 HO21         0.8450    -1.6680     1.3810 h1         1 BDU      -0.012967
     38 HO22        -0.6530    -1.8040     2.3120 h1         1 BDU      -0.012967
     39 HO23         0.6920    -0.8410     2.9380 h1         1 BDU      -0.012967
     40 HX31        -0.0480     2.1300    -0.1760 hc         1 BDU       0.042200
     41 HX32        -1.6210     1.3480    -0.3570 hc         1 BDU       0.042200
     42 HX4          0.6350     1.4400    -2.3680 h1         1 BDU       0.013700
     43 HA          -0.5800     3.1930    -2.6600 ho         1 BDU       0.382000
     44 HX5         -2.0130    -0.0000    -2.6170 h1         1 BDU       0.087700
     45 HB           0.3060     0.0320    -4.4610 hn         1 BDU       0.167500
     46 H111        -1.8510    -0.4470    -7.1980 hc         1 BDU       0.017367
     47 H112        -0.8930     0.9970    -6.8440 hc         1 BDU       0.017367
     48 H113        -0.2020    -0.6100    -6.5790 hc         1 BDU       0.017367
     49 HX6          0.7320    -1.2260    -2.2500 h1         1 BDU       0.069700
     50 HX7         -0.7640    -2.6190    -3.5930 h1         1 BDU       0.026700
     51 HC          -2.6190    -2.7630    -1.5150 ho         1 BDU       0.392000
     52 HX8         -0.7340    -3.6440    -0.7450 h1         1 BDU       0.027700
     53 HD           1.2980    -4.3650    -1.2210 ho         1 BDU       0.390000
     54 HX91        -0.6370    -5.8750    -1.6770 h1         1 BDU       0.029700
     55 HX92        -2.1070    -5.0600    -2.2060 h1         1 BDU       0.029700
     56 HE           0.2850    -5.4090    -3.9150 hn         1 BDU       0.183500
     57 HD1         -2.8930    -6.8810    -6.5890 ha         1 BDU       0.122500
     58 HE1         -2.0300    -7.3820    -8.8680 ha         1 BDU       0.108000
     59 HD2          0.7350    -4.8050    -5.6610 ha         1 BDU       0.122500
     60 HE2          1.6070    -5.3000    -7.9370 ha         1 BDU       0.108000
     61 HY1          1.2600    -8.5190    -9.2890 ha         1 BDU       0.110000
     62 HY2         -0.4600    -4.8630   -10.7380 ha         1 BDU       0.110000
     63 HG1          2.1220    -9.0140   -11.5590 ha         1 BDU       0.101000
     64 HG2          0.4020    -5.3580   -13.0080 ha         1 BDU       0.101000
     65 H2Z          1.6920    -7.4320   -13.4190 ha         1 BDU       0.099000
@<TRIPOS>BOND
     1     1     2 1   
     2     1     3 1   
     3     1     4 1   
     4     4     5 1   
     5     4     7 1   
     6     4    16 1   
     7     5     6 1   
     8     6    37 1   
     9     6    38 1   
    10     6    39 1   
    11     7     8 1   
    12     7    40 1   
    13     7    41 1   
    14     8     9 1   
    15     8    10 1   
    16     8    42 1   
    17     9    43 1   
    18    10    11 1   
    19    10    15 1   
    20    10    44 1   
    21    11    12 1   
    22    11    45 1   
    23    12    13 2   
    24    12    14 1   
    25    14    46 1   
    26    14    47 1   
    27    14    48 1   
    28    15    16 1   
    29    15    17 1   
    30    15    49 1   
    31    17    18 1   
    32    17    19 1   
    33    17    50 1   
    34    18    51 1   
    35    19    20 1   
    36    19    21 1   
    37    19    52 1   
    38    20    53 1   
    39    21    22 1   
    40    21    54 1   
    41    21    55 1   
    42    22    23 1   
    43    22    56 1   
    44    23    24 2   
    45    23    25 1   
    46    25    26 ar  
    47    25    28 ar  
    48    26    27 ar  
    49    26    57 1   
    50    27    30 ar  
    51    27    58 1   
    52    28    29 ar  
    53    28    59 1   
    54    29    30 ar  
    55    29    60 1   
    56    30    31 1   
    57    31    32 ar  
    58    31    33 ar  
    59    32    34 ar  
    60    32    61 1   
    61    33    35 ar  
    62    33    62 1   
    63    34    36 ar  
    64    34    63 1   
    65    35    36 ar  
    66    35    64 1   
    67    36    65 1   
@<TRIPOS>SUBSTRUCTURE
     1 BDU         1 TEMP              0 ****  ****    0 ROOT
