@<TRIPOS>MOLECULE
BDV
   61    62     1     0     0
SMALL
bcc


@<TRIPOS>ATOM
      1 C1           0.0000     0.0000     0.0000 c3         1 BDV       0.029200
      2 N1           1.4730     0.0000     0.0000 nu         1 BDV      -0.583200
      3 O1          -1.4980     0.0000     1.9270 o          1 BDV      -0.630500
      4 C2           1.8630     0.0000     1.3170 c2         1 BDV       0.407800
      5 N2           0.7790    -0.0000     2.1580 n          1 BDV       0.003700
      6 O2           1.0700     7.6680     7.0720 o          1 BDV      -0.708100
      7 C3          -0.3760     0.0000     1.4660 c          1 BDV       0.628500
      8 N3           3.1030    -0.0010     1.7150 n2         1 BDV      -0.812100
      9 C4          -0.5350    -1.2570    -0.6900 c3         1 BDV       0.005900
     10 N4           1.0660     5.4480     7.0080 ns         1 BDV      -0.222900
     11 C5          -0.5340     1.2580    -0.6890 c3         1 BDV      -0.022400
     12 N5           1.1850     6.6150     9.0240 ns         1 BDV      -0.223900
     13 C6          -0.1840     1.2110    -2.1780 c3         1 BDV      -0.062700
     14 C7          -0.8060     2.4180    -2.8850 c3         1 BDV      -0.005100
     15 C8           1.3350     1.2470    -2.3470 c3         1 BDV      -0.005100
     16 C9           0.8660    -0.0010     3.6210 c3         1 BDV       0.113300
     17 C10          0.8950     1.4200     4.1220 ca         1 BDV      -0.127300
     18 C11         -0.2860     2.0710     4.4240 ca         1 BDV      -0.082000
     19 C12         -0.2580     3.3740     4.8850 ca         1 BDV      -0.092500
     20 C13          0.9500     4.0250     5.0440 ca         1 BDV      -0.119300
     21 C14          2.1310     3.3740     4.7430 ca         1 BDV      -0.092500
     22 C15          2.1040     2.0700     4.2870 ca         1 BDV      -0.082000
     23 C16          0.9790     5.4470     5.5450 c3         1 BDV       0.128300
     24 C17          1.2290     7.8840     9.7550 c3         1 BDV       0.065000
     25 C18          1.3170     7.6050    11.2580 c3         1 BDV      -0.044400
     26 C19          1.3620     8.9310    12.0200 c3         1 BDV      -0.021400
     27 C20          1.1050     6.6150     7.6800 c          1 BDV       0.578100
     28 C21          1.4510     8.6520    13.5230 c3         1 BDV       0.005900
     29 HN1          2.0710    -0.0110    -0.8020 hn         1 BDV       0.360800
     30 HN3          3.8450    -0.0010     1.0430 hn         1 BDV       0.332400
     31 H4          -0.4730    -2.0970    -0.0080 hc         1 BDV       0.017700
     32 H4A         -1.5670    -1.0990    -0.9770 hc         1 BDV       0.017700
     33 H4B          0.0580    -1.4640    -1.5730 hc         1 BDV       0.017700
     34 HN4          1.0950     4.5810     7.5080 hn         1 BDV       0.169500
     35 H5          -0.0830     2.1340    -0.2390 hc         1 BDV       0.036700
     36 H5A         -1.6090     1.3050    -0.5710 hc         1 BDV       0.036700
     37 HN5          1.2150     5.7490     9.5240 hn         1 BDV       0.166500
     38 H6          -0.5740     0.2980    -2.6120 hc         1 BDV       0.034700
     39 H7          -1.8770     2.4200    -2.7220 hc         1 BDV       0.008533
     40 H7A         -0.3780     3.3300    -2.4870 hc         1 BDV       0.008533
     41 H7B         -0.6020     2.3580    -3.9470 hc         1 BDV       0.008533
     42 H8           1.5850     1.7850    -3.2530 hc         1 BDV       0.008533
     43 H8A          1.7820     1.7480    -1.4960 hc         1 BDV       0.008533
     44 H8B          1.7160     0.2350    -2.4100 hc         1 BDV       0.008533
     45 H9           1.7710    -0.5110     3.9280 h1         1 BDV       0.044700
     46 H9A          0.0050    -0.5120     4.0340 h1         1 BDV       0.044700
     47 H11         -1.2330     1.5600     4.3000 ha         1 BDV       0.124000
     48 H12         -1.1840     3.8850     5.1210 ha         1 BDV       0.110000
     49 H14          3.0780     3.8840     4.8700 ha         1 BDV       0.110000
     50 H15          3.0300     1.5590     4.0510 ha         1 BDV       0.124000
     51 H16          1.8410     5.9580     5.1320 h1         1 BDV       0.027700
     52 H16A         0.0750     5.9570     5.2360 h1         1 BDV       0.027700
     53 H17          0.3300     8.4520     9.5460 h1         1 BDV       0.025700
     54 H17A         2.0960     8.4520     9.4420 h1         1 BDV       0.025700
     55 H18          0.4500     7.0370    11.5710 hc         1 BDV       0.015700
     56 H18A         2.2160     7.0370    11.4670 hc         1 BDV       0.015700
     57 H19          2.2300     9.4990    11.7070 hc         1 BDV       0.016200
     58 H19A         0.4640     9.4990    11.8110 hc         1 BDV       0.016200
     59 H21          1.4840     9.5900    14.0630 hc         1 BDV       0.001033
     60 H21A         2.3490     8.0830    13.7320 hc         1 BDV       0.001033
     61 H21B         0.5830     8.0850    13.8370 hc         1 BDV       0.001033
@<TRIPOS>BOND
     1     1     2 1   
     2     1     7 1   
     3     1     9 1   
     4     1    11 1   
     5     2     4 1   
     6     2    29 1   
     7     3     7 2   
     8     4     5 1   
     9     4     8 2   
    10     5     7 1   
    11     5    16 1   
    12     6    27 2   
    13     8    30 1   
    14     9    31 1   
    15     9    32 1   
    16     9    33 1   
    17    10    23 1   
    18    10    27 1   
    19    10    34 1   
    20    11    13 1   
    21    11    35 1   
    22    11    36 1   
    23    12    24 1   
    24    12    27 1   
    25    12    37 1   
    26    13    14 1   
    27    13    15 1   
    28    13    38 1   
    29    14    39 1   
    30    14    40 1   
    31    14    41 1   
    32    15    42 1   
    33    15    43 1   
    34    15    44 1   
    35    16    17 1   
    36    16    45 1   
    37    16    46 1   
    38    17    18 ar  
    39    17    22 ar  
    40    18    19 ar  
    41    18    47 1   
    42    19    20 ar  
    43    19    48 1   
    44    20    21 ar  
    45    20    23 1   
    46    21    22 ar  
    47    21    49 1   
    48    22    50 1   
    49    23    51 1   
    50    23    52 1   
    51    24    25 1   
    52    24    53 1   
    53    24    54 1   
    54    25    26 1   
    55    25    55 1   
    56    25    56 1   
    57    26    28 1   
    58    26    57 1   
    59    26    58 1   
    60    28    59 1   
    61    28    60 1   
    62    28    61 1   
@<TRIPOS>SUBSTRUCTURE
     1 BDV         1 TEMP              0 ****  ****    0 ROOT
