@<TRIPOS>MOLECULE
BDW
   88    92     1     0     0
SMALL
bcc


@<TRIPOS>ATOM
      1 C1         -0.0440    0.1330    0.2000 c3        1 BDW      0.114200
      2 N1          1.4010    0.2440   -0.0970 nh        1 BDW     -0.797200
      3 O1         -1.1480    0.0640    2.4460 o         1 BDW     -0.592500
      4 C2          2.1170    0.3720    1.1730 c2        1 BDW      0.619800
      5 N2          1.1790    0.2540    2.2570 n         1 BDW     -0.409300
      6 O2         -0.4760    6.0660    7.3050 o         1 BDW     -0.629500
      7 C3         -0.1280    0.1500    1.7570 c         1 BDW      0.696500
      8 N3          3.3980    0.4870    1.3610 n2        1 BDW     -0.835100
      9 C4         -0.9090    1.2740   -0.3640 c3        1 BDW     -0.093400
     10 N4          1.8920    5.9080    7.1640 n         1 BDW     -0.426800
     11 C5         -0.6380   -1.1920   -0.3140 c3        1 BDW     -0.057400
     12 N5          0.7910    5.3220    9.1570 n         1 BDW     -0.515900
     13 C6         -0.4240    2.6790   -0.0360 c3        1 BDW     -0.073700
     14 C7          1.5300    0.3540    3.6460 c3        1 BDW      0.161300
     15 C8          1.6480    1.7590    4.1680 ca        1 BDW     -0.115300
     16 C9          0.5040    2.4460    4.5880 ca        1 BDW     -0.111500
     17 C10         0.6130    3.7340    5.1060 ca        1 BDW     -0.127000
     18 C11         1.8660    4.3490    5.2030 ca        1 BDW     -0.127300
     19 C12         3.0070    3.6630    4.7790 ca        1 BDW     -0.127000
     20 C13         2.9000    2.3740    4.2590 ca        1 BDW     -0.111500
     21 C14         0.1730    3.3580   -1.2640 c3        1 BDW     -0.072900
     22 C15         0.6410    4.7620   -0.9390 c3        1 BDW     -0.078400
     23 C16        -0.4880    5.6000   -0.3760 c3        1 BDW     -0.077400
     24 C17        -1.1170    4.9310    0.8280 c3        1 BDW     -0.078400
     25 C18        -1.5740    3.5230    0.5050 c3        1 BDW     -0.072900
     26 C19         0.0660   -2.4250    0.2070 c3        1 BDW     -0.077400
     27 C22         1.9700    5.7510    5.7340 c3        1 BDW      0.124300
     28 C23         2.9050    5.2760    8.0040 c3        1 BDW      0.043000
     29 C24         2.1760    4.8890    9.3430 c3        1 BDW      0.054700
     30 C25         0.6190    5.7590    7.8100 c         1 BDW      0.752500
     31 C26         2.3780    3.4100    9.6570 c3        1 BDW     -0.105400
     32 C27         1.8330    3.0380   11.0190 c3        1 BDW     -0.080400
     33 C28         2.1430    1.6030   11.3570 c3        1 BDW     -0.094100
     34 C29        -0.6350   -3.7020   -0.2380 c3        1 BDW     -0.062700
     35 C30         0.3190   -4.8840   -0.1250 c3        1 BDW     -0.073900
     36 C31        -0.3520   -6.1760   -0.5420 c3        1 BDW     -0.076400
     37 C32        -1.6130   -6.4280    0.2590 c3        1 BDW     -0.076400
     38 C33        -2.5630   -5.2530    0.1640 c3        1 BDW     -0.076400
     39 C34        -1.8890   -3.9630    0.5840 c3        1 BDW     -0.073900
     40 HN1         1.6050    0.9990   -0.7220 hn        1 BDW      0.397800
     41 HN3         3.9450    0.5340    0.5280 hn        1 BDW      0.406400
     42 H4         -1.9430    1.1240    0.0530 hc        1 BDW      0.066700
     43 H4A        -0.9770    1.1450   -1.4770 hc        1 BDW      0.066700
     44 H5         -1.7160   -1.2100    0.0040 hc        1 BDW      0.057200
     45 H5A        -0.6060   -1.1880   -1.4350 hc        1 BDW      0.057200
     46 HN5         0.0750    4.7370    9.5210 hn        1 BDW      0.309500
     47 H6          0.3670    2.6350    0.7650 hc        1 BDW      0.051700
     48 H7          0.7180   -0.1800    4.2250 h1        1 BDW      0.076700
     49 H7A         2.5060   -0.1880    3.8090 h1        1 BDW      0.076700
     50 H9         -0.4840    1.9640    4.5030 ha        1 BDW      0.150000
     51 H10        -0.2860    4.2790    5.4420 ha        1 BDW      0.143000
     52 H12         3.9950    4.1430    4.8480 ha        1 BDW      0.143000
     53 H13         3.7990    1.8400    3.9120 ha        1 BDW      0.150000
     54 H14        -0.6000    3.4010   -2.0760 hc        1 BDW      0.040950
     55 H14A        1.0360    2.7590   -1.6550 hc        1 BDW      0.040950
     56 H15         1.4790    4.7150   -0.1940 hc        1 BDW      0.043200
     57 H15A        1.0420    5.2450   -1.8680 hc        1 BDW      0.043200
     58 H16        -0.0970    6.6090   -0.0840 hc        1 BDW      0.041200
     59 H16A       -1.2680    5.7560   -1.1670 hc        1 BDW      0.041200
     60 H17        -1.9950    5.5350    1.1780 hc        1 BDW      0.043200
     61 H17A       -0.3750    4.8990    1.6690 hc        1 BDW      0.043200
     62 H18        -2.3980    3.5600   -0.2560 hc        1 BDW      0.040950
     63 H18A       -1.9860    3.0420    1.4300 hc        1 BDW      0.040950
     64 H19         1.1240   -2.4420   -0.1680 hc        1 BDW      0.051700
     65 H19A        0.1070   -2.3930    1.3280 hc        1 BDW      0.051700
     66 H22         1.1330    6.3690    5.2920 h1        1 BDW      0.075200
     67 H22A        2.9550    6.1990    5.4140 h1        1 BDW      0.075200
     68 H23         3.7160    6.0220    8.2090 h1        1 BDW      0.058700
     69 H23A        3.3540    4.3710    7.5120 h1        1 BDW      0.058700
     70 H24         2.6030    5.5040   10.1860 h1        1 BDW      0.076700
     71 H26         3.4800    3.2000    9.6270 hc        1 BDW      0.053700
     72 H26A        1.8970    2.7740    8.8680 hc        1 BDW      0.053700
     73 H27         2.2760    3.7140   11.7970 hc        1 BDW      0.042700
     74 H27A        0.7210    3.1930   11.0430 hc        1 BDW      0.042700
     75 H28         1.7270    1.3440   12.3610 hc        1 BDW      0.036367
     76 H28A        1.6970    0.9130   10.6010 hc        1 BDW      0.036367
     77 H28B        3.2470    1.4320   11.3790 hc        1 BDW      0.036367
     78 H29        -0.9340   -3.5930   -1.3190 hc        1 BDW      0.045700
     79 H30         0.6780   -4.9690    0.9340 hc        1 BDW      0.041200
     80 H30A        1.2170   -4.7040   -0.7720 hc        1 BDW      0.041200
     81 H31        -0.6060   -6.1300   -1.6330 hc        1 BDW      0.038450
     82 H31A        0.3610   -7.0300   -0.3990 hc        1 BDW      0.038450
     83 H32        -2.1190   -7.3540   -0.1190 hc        1 BDW      0.038700
     84 H32A       -1.3440   -6.6050    1.3330 hc        1 BDW      0.038700
     85 H33        -3.4560   -5.4380    0.8170 hc        1 BDW      0.038450
     86 H33A       -2.9330   -5.1560   -0.8910 hc        1 BDW      0.038450
     87 H34        -2.6060   -3.1100    0.4610 hc        1 BDW      0.041200
     88 H34A       -1.6170   -4.0190    1.6710 hc        1 BDW      0.041200
@<TRIPOS>BOND
     1    1    2 1   
     2    1    7 1   
     3    1    9 1   
     4    1   11 1   
     5    2    4 1   
     6    2   40 1   
     7    3    7 2   
     8    4    5 1   
     9    4    8 2   
    10    5    7 1   
    11    5   14 1   
    12    6   30 2   
    13    8   41 1   
    14    9   13 1   
    15    9   42 1   
    16    9   43 1   
    17   10   27 1   
    18   10   28 1   
    19   10   30 1   
    20   11   26 1   
    21   11   44 1   
    22   11   45 1   
    23   12   29 1   
    24   12   30 1   
    25   12   46 1   
    26   13   21 1   
    27   13   25 1   
    28   13   47 1   
    29   14   15 1   
    30   14   48 1   
    31   14   49 1   
    32   15   16 ar  
    33   15   20 ar  
    34   16   17 ar  
    35   16   50 1   
    36   17   18 ar  
    37   17   51 1   
    38   18   19 ar  
    39   18   27 1   
    40   19   20 ar  
    41   19   52 1   
    42   20   53 1   
    43   21   22 1   
    44   21   54 1   
    45   21   55 1   
    46   22   23 1   
    47   22   56 1   
    48   22   57 1   
    49   23   24 1   
    50   23   58 1   
    51   23   59 1   
    52   24   25 1   
    53   24   60 1   
    54   24   61 1   
    55   25   62 1   
    56   25   63 1   
    57   26   34 1   
    58   26   64 1   
    59   26   65 1   
    60   27   66 1   
    61   27   67 1   
    62   28   29 1   
    63   28   68 1   
    64   28   69 1   
    65   29   31 1   
    66   29   70 1   
    67   31   32 1   
    68   31   71 1   
    69   31   72 1   
    70   32   33 1   
    71   32   73 1   
    72   32   74 1   
    73   33   75 1   
    74   33   76 1   
    75   33   77 1   
    76   34   35 1   
    77   34   39 1   
    78   34   78 1   
    79   35   36 1   
    80   35   79 1   
    81   35   80 1   
    82   36   37 1   
    83   36   81 1   
    84   36   82 1   
    85   37   38 1   
    86   37   83 1   
    87   37   84 1   
    88   38   39 1   
    89   38   85 1   
    90   38   86 1   
    91   39   87 1   
    92   39   88 1   
@<TRIPOS>SUBSTRUCTURE
     1 BDW         1 TEMP              0 ****  ****    0 ROOT
