@<TRIPOS>MOLECULE
BDX
   56    58     1     0     0
SMALL
bcc


@<TRIPOS>ATOM
      1 C1           0.0000     0.0000     0.0000 c2         1 BDX       0.399800
      2 N1           1.3740     0.0000     0.0000 n          1 BDX      -0.079300
      3 O1           3.0290     0.0010     1.5800 o          1 BDX      -0.632500
      4 C2           1.8600     0.0000     1.2560 c          1 BDX       0.652500
      5 N2          -0.4980     0.0000     1.2790 nu         1 BDX      -0.470200
      6 C3           0.6640    -0.0000     2.1830 c3         1 BDX       0.020200
      7 N3          -0.7350     0.0050    -1.0750 n2         1 BDX      -0.807100
      8 C4           0.6630    -1.2570     3.0540 c3         1 BDX      -0.031400
      9 C5           0.4270     2.4870     2.1750 c3         1 BDX      -0.063700
     10 C6           0.1890     3.7100     3.0640 c3         1 BDX      -0.042900
     11 C7          -0.0470     4.9410     2.1850 c3         1 BDX      -0.021900
     12 C8           1.1810     5.1810     1.3040 c3         1 BDX      -0.024400
     13 C9           1.4190     3.9580     0.4160 c3         1 BDX      -0.021900
     14 C10          1.6550     2.7280     1.2940 c3         1 BDX      -0.042900
     15 C11          0.6640     1.2570     3.0540 c3         1 BDX      -0.024400
     16 C12          0.6190    -2.4980     2.1610 c3         1 BDX      -0.041400
     17 C13          0.6190    -3.7550     3.0330 c3         1 BDX      -0.046700
     18 C14          0.4480    -4.9910     2.1460 c3         1 BDX      -0.026900
     19 C15          0.4480    -6.2480     3.0190 c3         1 BDX      -0.022900
     20 C16          1.7730    -6.3430     3.7770 c3         1 BDX      -0.025400
     21 C17          1.9430    -5.1070     4.6630 c3         1 BDX      -0.022900
     22 C18          1.9430    -3.8500     3.7920 c3         1 BDX      -0.026900
     23 C19          2.2010    -0.0010    -1.2090 c3         1 BDX       0.084300
     24 HN2         -1.4630    -0.0020     1.5450 hn         1 BDX       0.334800
     25 HN3         -0.3010     0.0060    -1.9770 hn         1 BDX       0.334400
     26 H4          -0.2050    -1.2470     3.7020 hc         1 BDX       0.036200
     27 H4A          1.5630    -1.2790     3.6570 hc         1 BDX       0.036200
     28 H5          -0.4400     2.3260     1.5460 hc         1 BDX       0.040700
     29 H6           1.0590     3.8760     3.6890 hc         1 BDX       0.022950
     30 H6A         -0.6810     3.5400     3.6860 hc         1 BDX       0.022950
     31 H7          -0.2140     5.8060     2.8150 hc         1 BDX       0.013700
     32 H7A         -0.9140     4.7730     1.5570 hc         1 BDX       0.013700
     33 H8           2.0480     5.3440     1.9320 hc         1 BDX       0.014200
     34 H8A          1.0120     6.0510     0.6810 hc         1 BDX       0.014200
     35 H9           0.5490     3.7930    -0.2080 hc         1 BDX       0.013700
     36 H9A          2.2890     4.1290    -0.2050 hc         1 BDX       0.013700
     37 H10          1.8210     1.8630     0.6640 hc         1 BDX       0.022950
     38 H10A         2.5220     2.8950     1.9230 hc         1 BDX       0.022950
     39 H11         -0.1250     1.1840     3.7930 hc         1 BDX       0.034200
     40 H11A         1.6200     1.3500     3.5550 hc         1 BDX       0.034200
     41 H12         -0.2800    -2.4770     1.5580 hc         1 BDX       0.024200
     42 H12A         1.4880    -2.5080     1.5140 hc         1 BDX       0.024200
     43 H13         -0.1990    -3.7070     3.7420 hc         1 BDX       0.029700
     44 H14          1.2680    -5.0430     1.4400 hc         1 BDX       0.018200
     45 H14A        -0.4920    -4.9240     1.6120 hc         1 BDX       0.018200
     46 H15         -0.3690    -6.1930     3.7280 hc         1 BDX       0.012950
     47 H15A         0.3290    -7.1220     2.3900 hc         1 BDX       0.012950
     48 H16          1.7710    -7.2320     4.3960 hc         1 BDX       0.013200
     49 H16A         2.5910    -6.3920     3.0680 hc         1 BDX       0.013200
     50 H17          2.8820    -5.1740     5.1980 hc         1 BDX       0.012950
     51 H17A         1.1220    -5.0550     5.3690 hc         1 BDX       0.012950
     52 H18          2.7610    -3.9040     3.0830 hc         1 BDX       0.018200
     53 H18A         2.0610    -2.9760     4.4210 hc         1 BDX       0.018200
     54 H19          1.9890    -0.8890    -1.7910 h1         1 BDX       0.021700
     55 H19A         1.9790     0.8790    -1.7990 h1         1 BDX       0.021700
     56 H19B         3.2480     0.0070    -0.9300 h1         1 BDX       0.021700
@<TRIPOS>BOND
     1     1     2 1   
     2     1     5 1   
     3     1     7 2   
     4     2     4 1   
     5     2    23 1   
     6     3     4 2   
     7     4     6 1   
     8     5     6 1   
     9     5    24 1   
    10     6     8 1   
    11     6    15 1   
    12     7    25 1   
    13     8    16 1   
    14     8    26 1   
    15     8    27 1   
    16     9    10 1   
    17     9    14 1   
    18     9    15 1   
    19     9    28 1   
    20    10    11 1   
    21    10    29 1   
    22    10    30 1   
    23    11    12 1   
    24    11    31 1   
    25    11    32 1   
    26    12    13 1   
    27    12    33 1   
    28    12    34 1   
    29    13    14 1   
    30    13    35 1   
    31    13    36 1   
    32    14    37 1   
    33    14    38 1   
    34    15    39 1   
    35    15    40 1   
    36    16    17 1   
    37    16    41 1   
    38    16    42 1   
    39    17    18 1   
    40    17    22 1   
    41    17    43 1   
    42    18    19 1   
    43    18    44 1   
    44    18    45 1   
    45    19    20 1   
    46    19    46 1   
    47    19    47 1   
    48    20    21 1   
    49    20    48 1   
    50    20    49 1   
    51    21    22 1   
    52    21    50 1   
    53    21    51 1   
    54    22    52 1   
    55    22    53 1   
    56    23    54 1   
    57    23    55 1   
    58    23    56 1   
@<TRIPOS>SUBSTRUCTURE
     1 BDX         1 TEMP              0 ****  ****    0 ROOT
