@<TRIPOS>MOLECULE
BDY
   66    70     1     0     0
SMALL
bcc


@<TRIPOS>ATOM
      1 N1           0.0000     0.0000     0.0000 nv         1 BDY      -0.641500
      2 N3           2.3510     0.0000     0.0000 nb         1 BDY      -0.508000
      3 C4           3.5070     0.0000     0.6430 ca         1 BDY       0.218900
      4 C5           3.5320     0.0010     2.0340 cp         1 BDY       0.372500
      5 C7           1.2340     0.0020     2.0820 ca         1 BDY       0.408900
      6 C10         -1.3500     0.0030     4.7870 ca         1 BDY      -0.114300
      7 C13         -3.2940    -1.1950     5.5110 ca         1 BDY      -0.099500
      8 C15         -3.2930     1.2000     5.5140 ca         1 BDY      -0.099500
      9 C20          7.2270     0.1070     2.7000 ca         1 BDY      -0.101000
     10 C21          7.2550     0.0030     4.0930 ca         1 BDY      -0.131600
     11 C22          6.0600    -0.1030     4.8090 ca         1 BDY      -0.101000
     12 C24          8.5470     0.0030     4.8070 c          1 BDY       0.618700
     13 C28          8.1100    -1.5400     8.1120 c3         1 BDY      -0.034400
     14 C2           1.2130     0.0010     0.6780 ca         1 BDY       0.296900
     15 N6           2.3900     0.0010     2.7230 nb         1 BDY      -0.626000
     16 C9           0.0640     0.0030     4.2610 c3         1 BDY       0.210100
     17 C11         -1.9970    -1.1950     5.0280 ca         1 BDY      -0.017600
     18 Cl12        -1.1840    -2.6990     4.7270 cl         1 BDY      -0.003400
     19 C14         -3.9420     0.0020     5.7500 ca         1 BDY      -0.073000
     20 C16         -1.9960     1.2000     5.0320 ca         1 BDY      -0.017600
     21 Cl17        -1.1810     2.7050     4.7360 cl         1 BDY      -0.003400
     22 C18          4.8280     0.0010     2.7510 cp         1 BDY      -0.137500
     23 C19          6.0210     0.1060     2.0350 ca         1 BDY      -0.087500
     24 C23          4.8560    -0.1030     4.1430 ca         1 BDY      -0.087500
     25 O25          9.5720     0.2740     4.2110 o          1 BDY      -0.610100
     26 N26          8.5920    -0.2960     6.1200 n          1 BDY      -0.151800
     27 C27          7.4580    -0.7770     6.9310 c3         1 BDY       0.020000
     28 C29          9.3610    -0.6670     8.3920 c3         1 BDY      -0.035400
     29 C30          9.7790    -0.1970     6.9830 c3         1 BDY       0.033700
     30 C31         10.2610     1.2540     7.0390 c3         1 BDY       0.134800
     31 N32         10.6550     1.6920     5.6940 n3         1 BDY      -0.512600
     32 C33         10.7490     3.1610     5.6230 c3         1 BDY       0.149300
     33 C34         12.1770     3.5060     5.1490 c3         1 BDY      -0.035900
     34 C35         12.6310     2.2060     4.4340 c3         1 BDY      -0.035900
     35 C36         11.9610     1.1170     5.3100 c3         1 BDY       0.149300
     36 HN1         -0.4370    -0.8670    -0.2420 hn         1 BDY       0.271800
     37 HN1A        -0.4360     0.8670    -0.2470 hn         1 BDY       0.271800
     38 H4           4.4360    -0.0000     0.0850 h4         1 BDY      -0.000900
     39 H13         -3.8020    -2.1330     5.6980 ha         1 BDY       0.119000
     40 H15         -3.8000     2.1380     5.7040 ha         1 BDY       0.119000
     41 H20          8.1530     0.1890     2.1440 ha         1 BDY       0.137000
     42 H22          6.0820    -0.1840     5.8890 ha         1 BDY       0.137000
     43 H28          8.3970    -2.5410     7.8130 hc         1 BDY       0.025200
     44 H28A         7.4510    -1.5560     8.9710 hc         1 BDY       0.025200
     45 HN8         -0.8340     0.0190     2.3100 hn         1 BDY       0.304800
     46 H9           0.5790     0.8890     4.6130 h1         1 BDY       0.038700
     47 H9A          0.5810    -0.8800     4.6150 h1         1 BDY       0.038700
     48 H14         -4.9580     0.0020     6.1270 ha         1 BDY       0.111000
     49 H19          5.9990     0.1870     0.9540 ha         1 BDY       0.118000
     50 H23          3.9300    -0.1860     4.6980 ha         1 BDY       0.118000
     51 H27          6.8370    -1.4480     6.3490 h1         1 BDY       0.032700
     52 H27A         6.8770     0.0600     7.3000 h1         1 BDY       0.032700
     53 H29         10.1460    -1.2610     8.8440 hc         1 BDY       0.024200
     54 H29A         9.1030     0.1800     9.0160 hc         1 BDY       0.024200
     55 H30         10.5650    -0.8380     6.6010 h1         1 BDY       0.039700
     56 H31          9.4610     1.8860     7.4050 h1         1 BDY       0.012200
     57 H31A        11.1120     1.3260     7.7060 h1         1 BDY       0.012200
     58 H33         10.0250     3.5430     4.9140 h1         1 BDY       0.015950
     59 H33A        10.5740     3.5890     6.6030 h1         1 BDY       0.015950
     60 H34         12.1580     4.3370     4.4540 hc         1 BDY       0.018450
     61 H34A        12.8190     3.7200     5.9950 hc         1 BDY       0.018450
     62 H35         13.7100     2.1090     4.4570 hc         1 BDY       0.018450
     63 H35A        12.2530     2.1710     3.4200 hc         1 BDY       0.018450
     64 H36         11.8190     0.2090     4.7360 h1         1 BDY       0.015950
     65 H36A        12.5610     0.9230     6.1920 h1         1 BDY       0.015950
     66 N8           0.0400     0.0010     2.7960 nu         1 BDY      -0.498900
@<TRIPOS>BOND
     1     1    14 1   
     2     1    36 1   
     3     1    37 1   
     4     2     3 ar  
     5     2    14 ar  
     6     3     4 ar  
     7     3    38 1   
     8     4    15 ar  
     9     4    22 1   
    10     5    14 ar  
    11     5    15 ar  
    12     5    66 1   
    13     6    16 1   
    14     6    17 ar  
    15     6    20 ar  
    16     7    17 ar  
    17     7    19 ar  
    18     7    39 1   
    19     8    19 ar  
    20     8    20 ar  
    21     8    40 1   
    22     9    10 ar  
    23     9    23 ar  
    24     9    41 1   
    25    10    11 ar  
    26    10    12 1   
    27    11    24 ar  
    28    11    42 1   
    29    12    25 2   
    30    12    26 1   
    31    13    27 1   
    32    13    28 1   
    33    13    43 1   
    34    13    44 1   
    35    16    46 1   
    36    16    47 1   
    37    16    66 1   
    38    17    18 1   
    39    19    48 1   
    40    20    21 1   
    41    22    23 ar  
    42    22    24 ar  
    43    23    49 1   
    44    24    50 1   
    45    26    27 1   
    46    26    29 1   
    47    27    51 1   
    48    27    52 1   
    49    28    29 1   
    50    28    53 1   
    51    28    54 1   
    52    29    30 1   
    53    29    55 1   
    54    30    31 1   
    55    30    56 1   
    56    30    57 1   
    57    31    32 1   
    58    31    35 1   
    59    32    33 1   
    60    32    58 1   
    61    32    59 1   
    62    33    34 1   
    63    33    60 1   
    64    33    61 1   
    65    34    35 1   
    66    34    62 1   
    67    34    63 1   
    68    35    64 1   
    69    35    65 1   
    70    45    66 1   
@<TRIPOS>SUBSTRUCTURE
     1 BDY         1 TEMP              0 ****  ****    0 ROOT
