@<TRIPOS>MOLECULE
molecule
   66    70     1     0     0
SMALL
bcc


@<TRIPOS>ATOM
      1 N1           0.0000     0.0000     0.0000 nv         1 BDY      -1.075500
      2 N3           2.3510     0.0000     0.0000 nb         1 BDY      -0.635000
      3 C4           3.5070     0.0000     0.6430 ca         1 BDY       0.251900
      4 C5           3.5320     0.0010     2.0340 cp         1 BDY       0.399500
      5 C7           1.2340     0.0020     2.0820 ca         1 BDY       0.585900
      6 C10         -1.3500     0.0030     4.7870 ca         1 BDY      -0.107300
      7 C13         -3.2940    -1.1950     5.5110 ca         1 BDY      -0.124000
      8 C15         -3.2930     1.2000     5.5140 ca         1 BDY      -0.124000
      9 C20          7.2270     0.1070     2.7000 ca         1 BDY      -0.112500
     10 C21          7.2550     0.0030     4.0930 ca         1 BDY      -0.125600
     11 C22          6.0600    -0.1030     4.8090 ca         1 BDY      -0.112500
     12 C24          8.5470     0.0030     4.8070 c          1 BDY       0.688700
     13 C28          8.1100    -1.5400     8.1120 c3         1 BDY      -0.099400
     14 C2           1.2130     0.0010     0.6780 ca         1 BDY       0.489900
     15 N6           2.3900     0.0010     2.7230 nb         1 BDY      -0.734000
     16 C9           0.0640     0.0030     4.2610 c3         1 BDY       0.282100
     17 C11         -1.9970    -1.1950     5.0280 ca         1 BDY       0.047400
     18 Cl12        -1.1840    -2.6990     4.7270 cl         1 BDY      -0.086400
     19 C14         -3.9420     0.0020     5.7500 ca         1 BDY      -0.105000
     20 C16         -1.9960     1.2000     5.0320 ca         1 BDY       0.047400
     21 Cl17        -1.1810     2.7050     4.7360 cl         1 BDY      -0.086400
     22 C18          4.8280     0.0010     2.7510 cp         1 BDY      -0.129500
     23 C19          6.0210     0.1060     2.0350 ca         1 BDY      -0.113500
     24 C23          4.8560    -0.1030     4.1430 ca         1 BDY      -0.113500
     25 O25          9.5720     0.2740     4.2110 o          1 BDY      -0.565100
     26 N26          8.5920    -0.2960     6.1200 n          1 BDY      -0.487800
     27 C27          7.4580    -0.7770     6.9310 c3         1 BDY       0.084000
     28 C29          9.3610    -0.6670     8.3920 c3         1 BDY      -0.095400
     29 C30          9.7790    -0.1970     6.9830 c3         1 BDY       0.121700
     30 C31         10.2610     1.2540     7.0390 c3         1 BDY       0.143800
     31 N32         10.6550     1.6920     5.6940 n3         1 BDY      -0.686600
     32 C33         10.7490     3.1610     5.6230 c3         1 BDY       0.155800
     33 C34         12.1770     3.5060     5.1490 c3         1 BDY      -0.097400
     34 C35         12.6310     2.2060     4.4340 c3         1 BDY      -0.097400
     35 C36         11.9610     1.1170     5.3100 c3         1 BDY       0.155800
     36 HN1         -0.4370    -0.8670    -0.2420 hn         1 BDY       0.432800
     37 HN1A        -0.4360     0.8670    -0.2470 hn         1 BDY       0.432800
     38 H4           4.4360    -0.0000     0.0850 h4         1 BDY       0.032100
     39 H13         -3.8020    -2.1330     5.6980 ha         1 BDY       0.150500
     40 H15         -3.8000     2.1380     5.7040 ha         1 BDY       0.150500
     41 H20          8.1530     0.1890     2.1440 ha         1 BDY       0.156500
     42 H22          6.0820    -0.1840     5.8890 ha         1 BDY       0.156500
     43 H28          8.3970    -2.5410     7.8130 hc         1 BDY       0.056200
     44 H28A         7.4510    -1.5560     8.9710 hc         1 BDY       0.056200
     45 HN8         -0.8340     0.0190     2.3100 hn         1 BDY       0.457800
     46 H9           0.5790     0.8890     4.6130 h1         1 BDY       0.067700
     47 H9A          0.5810    -0.8800     4.6150 h1         1 BDY       0.067700
     48 H14         -4.9580     0.0020     6.1270 ha         1 BDY       0.145000
     49 H19          5.9990     0.1870     0.9540 ha         1 BDY       0.144500
     50 H23          3.9300    -0.1860     4.6980 ha         1 BDY       0.144500
     51 H27          6.8370    -1.4480     6.3490 h1         1 BDY       0.052700
     52 H27A         6.8770     0.0600     7.3000 h1         1 BDY       0.052700
     53 H29         10.1460    -1.2610     8.8440 hc         1 BDY       0.054200
     54 H29A         9.1030     0.1800     9.0160 hc         1 BDY       0.054200
     55 H30         10.5650    -0.8380     6.6010 h1         1 BDY       0.063700
     56 H31          9.4610     1.8860     7.4050 h1         1 BDY       0.034700
     57 H31A        11.1120     1.3260     7.7060 h1         1 BDY       0.034700
     58 H33         10.0250     3.5430     4.9140 h1         1 BDY       0.042450
     59 H33A        10.5740     3.5890     6.6030 h1         1 BDY       0.042450
     60 H34         12.1580     4.3370     4.4540 hc         1 BDY       0.047700
     61 H34A        12.8190     3.7200     5.9950 hc         1 BDY       0.047700
     62 H35         13.7100     2.1090     4.4570 hc         1 BDY       0.047700
     63 H35A        12.2530     2.1710     3.4200 hc         1 BDY       0.047700
     64 H36         11.8190     0.2090     4.7360 h1         1 BDY       0.042450
     65 H36A        12.5610     0.9230     6.1920 h1         1 BDY       0.042450
     66 N8           0.0400     0.0010     2.7960 nu         1 BDY      -0.903900
@<TRIPOS>BOND
     1     1    14 1
     2     2     3 ar
     3     2    14 ar
     4     3     4 ar
     5     4    15 ar
     6     4    22 1
     7     5    14 ar
     8     5    15 ar
     9     5    66 1
    10     6    16 1
    11     6    17 ar
    12     6    20 ar
    13     7    17 ar
    14     7    19 ar
    15     8    19 ar
    16     8    20 ar
    17     9    10 ar
    18     9    23 ar
    19    10    11 ar
    20    10    12 1
    21    11    24 ar
    22    12    25 2
    23    12    26 1
    24    13    27 1
    25    13    28 1
    26    66    16 1
    27    17    18 1
    28    20    21 1
    29    22    23 ar
    30    22    24 ar
    31    26    27 1
    32    26    29 1
    33    28    29 1
    34    29    30 1
    35    30    31 1
    36    31    32 1
    37    31    35 1
    38    32    33 1
    39    33    34 1
    40    34    35 1
    41     1    36 1
    42     1    37 1
    43     3    38 1
    44     7    39 1
    45     8    40 1
    46     9    41 1
    47    11    42 1
    48    13    43 1
    49    13    44 1
    50    66    45 1
    51    16    46 1
    52    16    47 1
    53    19    48 1
    54    23    49 1
    55    24    50 1
    56    27    51 1
    57    27    52 1
    58    28    53 1
    59    28    54 1
    60    29    55 1
    61    30    56 1
    62    30    57 1
    63    32    58 1
    64    32    59 1
    65    33    60 1
    66    33    61 1
    67    34    62 1
    68    34    63 1
    69    35    64 1
    70    35    65 1
@<TRIPOS>SUBSTRUCTURE
     1 BDY         1 TEMP              0 ****  ****    0 ROOT
