@<TRIPOS>MOLECULE
BE0
   23    23     1     0     0
SMALL
bcc


@<TRIPOS>ATOM
      1 N1           0.0000     0.0000     0.0000 n3         1 BE0      -0.513500
      2 O1          -2.1230     1.2370    -0.2350 o          1 BE0      -0.494800
      3 S1          -0.8430     1.1480    -0.8460 s6         1 BE0       1.007800
      4 O2           0.0280     2.2610    -0.9890 o          1 BE0      -0.494800
      5 N2          -1.0920     0.5490    -2.3690 nz         1 BE0      -0.156500
      6 CB1          1.4690     0.0000     0.0000 c3         1 BE0       0.223800
      7 CC1          1.9630     0.0000     1.4510 c3         1 BE0      -0.031900
      8 CD1          1.3330    -1.1770     2.2000 c3         1 BE0      -0.027400
      9 CC2         -0.1890    -1.0240     2.2070 c3         1 BE0      -0.031900
     10 CB2         -0.7060    -1.0330     0.7690 c3         1 BE0       0.223800
     11 HN2         -0.2100     0.3700    -2.8070 hn         1 BE0       0.316133
     12 HN2A        -1.6030     1.2180    -2.9110 hn         1 BE0       0.316133
     13 HB1          1.8320    -0.8870    -0.5060 h1         1 BE0       0.031200
     14 HB1A         1.8320     0.8870    -0.5060 h1         1 BE0       0.031200
     15 HC1          3.0410    -0.1000     1.4650 hc         1 BE0       0.039700
     16 HC1A         1.6740     0.9280     1.9300 hc         1 BE0       0.039700
     17 HD1          1.6980    -1.1910     3.2200 hc         1 BE0       0.031200
     18 HD1A         1.5990    -2.1030     1.7030 hc         1 BE0       0.031200
     19 HC2         -0.4550    -0.0860     2.6790 hc         1 BE0       0.039700
     20 HC2A        -0.6320    -1.8480     2.7530 hc         1 BE0       0.039700
     21 HB2         -1.7690    -0.8220     0.7660 h1         1 BE0       0.031200
     22 HB2A        -0.5220    -2.0030     0.3240 h1         1 BE0       0.031200
     23 H23         -1.6090    -0.3060    -2.3110 hn         1 BE0       0.316133
@<TRIPOS>BOND
     1     1     3 1   
     2     1     6 1   
     3     1    10 1   
     4     2     3 2   
     5     3     4 2   
     6     3     5 1   
     7     5    11 1   
     8     5    12 1   
     9     5    23 1   
    10     6     7 1   
    11     6    13 1   
    12     6    14 1   
    13     7     8 1   
    14     7    15 1   
    15     7    16 1   
    16     8     9 1   
    17     8    17 1   
    18     8    18 1   
    19     9    10 1   
    20     9    19 1   
    21     9    20 1   
    22    10    21 1   
    23    10    22 1   
@<TRIPOS>SUBSTRUCTURE
     1 BE0         1 TEMP              0 ****  ****    0 ROOT
