@<TRIPOS>MOLECULE
molecule
   19    18     1     0     0
SMALL
bcc


@<TRIPOS>ATOM
      1 C1           0.0000     0.0000     0.0000 c3         1 BE1      -0.175100
      2 C2           1.5070     0.0000     0.0000 c          1 BE1       0.671100
      3 C3           3.6450    -0.0010    -1.1670 c3         1 BE1       0.098000
      4 C4           4.1540    -1.4430    -1.1660 c3         1 BE1       0.136400
      5 O2           2.1130     0.0000     1.0500 o          1 BE1      -0.621100
      6 N            2.1800    -0.0010    -1.1660 n          1 BE1      -0.381600
      7 O4           3.6790    -2.1180    -2.3320 os         1 BE1      -0.541200
      8 P            4.2500    -3.6200    -2.2660 p5         1 BE1       1.155900
      9 O1P          3.7560    -4.2820    -1.0390 o          1 BE1      -0.911500
     10 O2P          3.7490    -4.4410    -3.5570 o          1 BE1      -0.911500
     11 O3P          5.8590    -3.5830    -2.2450 o          1 BE1      -0.911500
     12 Br           1.2550    -0.0010    -2.7680 br         1 BE1       0.044200
     13 H11         -0.3610    -0.9310    -0.4200 hc         1 BE1       0.052033
     14 H12         -0.3610     0.8290    -0.5970 hc         1 BE1       0.052033
     15 H13         -0.3610     0.1020     1.0160 hc         1 BE1       0.052033
     16 H31          4.0050     0.5090    -2.0520 h1         1 BE1       0.040700
     17 H32          4.0060     0.5100    -0.2830 h1         1 BE1       0.040700
     18 H41          5.2380    -1.4430    -1.1660 h1         1 BE1       0.055700
     19 H42          3.7930    -1.9530    -0.2810 h1         1 BE1       0.055700
@<TRIPOS>BOND
     1     1     2 1
     2     1    13 1
     3     1    14 1
     4     1    15 1
     5     2     5 2
     6     2     6 1
     7     3     4 1
     8     3     6 1
     9     3    16 1
    10     3    17 1
    11     4     7 1
    12     4    18 1
    13     4    19 1
    14     6    12 1
    15     7     8 1
    16     8     9 1
    17     8    10 1
    18     8    11 1
@<TRIPOS>SUBSTRUCTURE
     1 BE1         1 TEMP              0 ****  ****    0 ROOT
