@<TRIPOS>MOLECULE
molecule
   35    36     1     0     0
SMALL
bcc


@<TRIPOS>ATOM
      1 C4           0.0000     0.0000     0.0000 ca         1 BE9       0.071100
      2 C5           1.3880     0.0000     0.0000 ca         1 BE9      -0.158000
      3 C6           2.0770     0.0000     1.1960 ca         1 BE9      -0.085500
      4 C8          -2.0300    -0.0670    -1.1290 c2         1 BE9       0.992500
      5 C15         -4.1180    -1.3980    -1.0740 c3         1 BE9       0.178300
      6 C2           0.0030    -0.0020     2.3970 ca         1 BE9      -0.085500
      7 C3          -0.6910    -0.0020     1.2030 ca         1 BE9      -0.158000
      8 O7          -0.6810     0.0070    -1.1760 os         1 BE9      -0.378700
      9 N14         -2.6510    -1.2920    -1.1240 nh         1 BE9      -0.708600
     10 C19         -1.8690    -2.5380    -1.1720 c3         1 BE9       0.178300
     11 C18         -2.4350    -3.4220    -2.2900 c3         1 BE9       0.121900
     12 O17         -3.8460    -3.5640    -2.1080 os         1 BE9      -0.398600
     13 C16         -4.5740    -2.3370    -2.1960 c3         1 BE9       0.121900
     14 N9          -2.7390     1.0220    -1.0870 ne         1 BE9      -0.939300
     15 S10         -2.0000     2.4980    -1.2310 sy         1 BE9       1.405300
     16 N13         -3.1190     3.5470    -1.8540 nz         1 BE9      -0.798500
     17 O12         -1.7270     2.9410     0.0910 o          1 BE9      -0.546300
     18 O11         -0.9950     2.3480    -2.2240 o          1 BE9      -0.546300
     19 C1           1.3860    -0.0020     2.3950 ca         1 BE9      -0.122000
     20 H5           1.9300     0.0010    -0.9380 ha         1 BE9       0.148500
     21 H6           3.1600     0.0000     1.1970 ha         1 BE9       0.153500
     22 H2          -0.5360    -0.0040     3.3370 ha         1 BE9       0.153500
     23 H3          -1.7740    -0.0020     1.2060 ha         1 BE9       0.148500
     24 H19         -0.8310    -2.3090    -1.3810 h1         1 BE9       0.084950
     25 H19A        -1.9500    -3.0550    -0.2240 h1         1 BE9       0.084950
     26 H18         -1.9670    -4.3980    -2.2500 h1         1 BE9       0.070950
     27 H18A        -2.2400    -2.9600    -3.2500 h1         1 BE9       0.070950
     28 H16         -5.6340    -2.5380    -2.0900 h1         1 BE9       0.070950
     29 H16A        -4.3830    -1.8720    -3.1560 h1         1 BE9       0.070950
     30 HN13        -2.7230     4.4650    -1.9070 hn         1 BE9       0.491800
     31 HN1A        -3.9260     3.5660    -1.2610 hn         1 BE9       0.491800
     32 H1           1.9290    -0.0020     3.3320 ha         1 BE9       0.153000
     33 H15         -4.4210    -1.8020    -0.1160 h1         1 BE9       0.084950
     34 H133        -3.3970     3.2370    -2.7640 hn         1 BE9       0.491800
     35 H15A        -4.5580    -0.4180    -1.2180 h1         1 BE9       0.084950
@<TRIPOS>BOND
     1     1     2 ar
     2     1     7 ar
     3     1     8 1
     4     2     3 ar
     5     3    19 ar
     6     4     8 1
     7     4     9 1
     8     4    14 2
     9     5     9 1
    10     5    13 1
    11     6     7 ar
    12     6    19 ar
    13     9    10 1
    14    10    11 1
    15    11    12 1
    16    12    13 1
    17    14    15 1
    18    15    16 1
    19    15    17 2
    20    15    18 2
    21     2    20 1
    22     3    21 1
    23     5    33 1
    24     5    35 1
    25     6    22 1
    26     7    23 1
    27    10    24 1
    28    10    25 1
    29    11    26 1
    30    11    27 1
    31    13    28 1
    32    13    29 1
    33    16    30 1
    34    16    31 1
    35    19    32 1
    36    34    16 1
@<TRIPOS>SUBSTRUCTURE
     1 BE9         1 TEMP              0 ****  ****    0 ROOT
