@<TRIPOS>MOLECULE
BEA
   21    23     1     0     0
SMALL
bcc


@<TRIPOS>ATOM
      1 C1         -0.0000   -0.0000   -0.0990 ca        1 BEA     -0.025300
      2 C2         -0.6780   -0.0010   -1.4120 c3        1 BEA     -0.077800
      3 C3          1.3960   -0.0010    0.0020 ca        1 BEA     -0.079000
      4 C4          2.0450   -0.0000    1.2400 ca        1 BEA     -0.087000
      5 C5          1.3230    0.0020    2.4330 ca        1 BEA     -0.059000
      6 C6         -0.0670    0.0030    2.3800 ca        1 BEA     -0.110100
      7 C7         -2.4780    0.0060    2.6550 cc        1 BEA     -0.020700
      8 C8         -0.7240    0.0020    1.1060 ca        1 BEA     -0.028200
      9 C9         -3.3220    0.0040    0.5490 cc        1 BEA      0.469400
     10 N1         -2.1180    0.0040    1.2790 na        1 BEA     -0.112000
     11 N2         -4.3590    0.0060    1.4150 n2        1 BEA     -0.426800
     12 N3         -3.8570    0.0070    2.6670 na        1 BEA      0.031400
     13 S          -1.1690    0.0060    3.6950 ss        1 BEA      0.279200
     14 H21        -1.3230   -0.9100   -1.5220 hc        1 BEA      0.068367
     15 H22         0.0670   -0.0030   -2.2480 hc        1 BEA      0.068367
     16 H23        -1.3200    0.9100   -1.5240 hc        1 BEA      0.068367
     17 H3          1.9970   -0.0030   -0.9250 ha        1 BEA      0.174000
     18 H4          3.1480   -0.0010    1.2740 ha        1 BEA      0.175000
     19 H5          1.8490    0.0030    3.4020 ha        1 BEA      0.172000
     20 H9         -3.3770    0.0030   -0.5520 h5        1 BEA      0.129100
     21 HN3        -4.4680    0.0080    3.4630 hn        1 BEA      0.390700
@<TRIPOS>BOND
     1    1    2 1   
     2    1    3 ar  
     3    1    8 ar  
     4    2   14 1   
     5    2   15 1   
     6    2   16 1   
     7    3    4 ar  
     8    3   17 1   
     9    4    5 ar  
    10    4   18 1   
    11    5    6 ar  
    12    5   19 1   
    13    6    8 ar  
    14    6   13 1   
    15    7   10 2   
    16    7   12 1   
    17    7   13 1   
    18    8   10 1   
    19    9   10 1   
    20    9   11 2   
    21    9   20 1   
    22   11   12 1   
    23   12   21 1   
@<TRIPOS>SUBSTRUCTURE
     1 BEA         1 TEMP              0 ****  ****    0 ROOT
