@<TRIPOS>MOLECULE
molecule
   21    23     1     0     0
SMALL
bcc


@<TRIPOS>ATOM
      1 C1           0.0000     0.0000     0.0000 ca         1 BEA      -0.025300
      2 C2          -0.7440    -0.0000    -1.3100 c3         1 BEA      -0.070800
      3 C3           1.3750     0.0000     0.0000 ca         1 BEA      -0.091000
      4 C4           2.0940     0.0000     1.1830 ca         1 BEA      -0.063000
      5 C5           1.4100     0.0010     2.3870 ca         1 BEA      -0.064000
      6 C6           0.0350     0.0020     2.3860 ca         1 BEA      -0.003100
      7 C7          -2.6330     0.0040     2.6140 cc         1 BEA       0.024300
      8 C8          -0.7190     0.0070     1.2060 ca         1 BEA      -0.083200
      9 C9          -3.2250     0.0040     0.5320 cc         1 BEA       0.464400
     10 N1          -2.1100     0.0030     1.3520 na         1 BEA      -0.103000
     11 N2          -4.2800     0.0050     1.2950 n2         1 BEA      -0.455800
     12 N3          -3.9300     0.0050     2.5340 na         1 BEA       0.118400
     13 S           -1.2000     0.0030     3.6630 ss         1 BEA       0.111200
     14 H21         -1.3650     0.8850    -1.3730 hc         1 BEA       0.064033
     15 H22         -0.0340    -0.0020    -2.1280 hc         1 BEA       0.064033
     16 H23         -1.3670    -0.8840    -1.3720 hc         1 BEA       0.064033
     17 H3           1.9060    -0.0010    -0.9440 ha         1 BEA       0.172000
     18 H4           3.1770     0.0000     1.1670 ha         1 BEA       0.176000
     19 H5           1.9550     0.0010     3.3230 ha         1 BEA       0.172000
     20 H9          -3.2210     0.0030    -0.5510 h5         1 BEA       0.129100
     21 HN3         -4.5590     0.0060     3.3130 hn         1 BEA       0.399700
@<TRIPOS>BOND
     1     1     2 1
     2     1     3 ar
     3     1     8 ar
     4     2    14 1
     5     2    15 1
     6     2    16 1
     7     3     4 ar
     8     3    17 1
     9     4     5 ar
    10     4    18 1
    11     5     6 ar
    12     5    19 1
    13     6     8 ar
    14     6    13 1
    15     7    10 2
    16     7    12 1
    17     7    13 1
    18     8    10 1
    19     9    10 1
    20     9    11 2
    21     9    20 1
    22    11    12 1
    23    12    21 1
@<TRIPOS>SUBSTRUCTURE
     1 BEA         1 TEMP              0 ****  ****    0 ROOT
