@<TRIPOS>MOLECULE
BEH
   83    87     1     0     0
SMALL
bcc


@<TRIPOS>ATOM
      1 C01          1.4290     0.0000     0.0000 c3         1 BEH       0.174100
      2 O02          0.0000     0.0000     0.0000 oh         1 BEH      -0.583800
      3 C03          1.9390     0.0000     1.4430 c3         1 BEH       0.056100
      4 O04          3.3630    -0.1250     1.4450 os         1 BEH      -0.352600
      5 C05          3.7120    -0.8480     2.6280 c3         1 BEH       0.255700
      6 C06          5.2120    -0.9190     2.7470 ca         1 BEH      -0.111300
      7 C07          5.8990     0.0680     3.4270 ca         1 BEH      -0.075500
      8 C08          7.2760     0.0030     3.5370 ca         1 BEH      -0.105500
      9 C09          7.9650    -1.0510     2.9680 ca         1 BEH      -0.093000
     10 C10          7.2780    -2.0400     2.2890 ca         1 BEH      -0.105500
     11 C11          5.9010    -1.9770     2.1830 ca         1 BEH      -0.075500
     12 C12          1.5470     1.2910     2.1140 c          1 BEH       0.545100
     13 O13          2.4030     2.0730     2.4700 o          1 BEH      -0.638100
     14 N14          0.2460     1.5760     2.3190 ns         1 BEH      -0.175900
     15 C15         -0.1350     2.8320     2.9710 c3         1 BEH       0.081000
     16 C16         -0.2470     3.9460     1.9450 ca         1 BEH      -0.113300
     17 C17          0.5840     4.2770     0.8880 ca         1 BEH      -0.060000
     18 C18          0.2780     5.3500     0.0740 ca         1 BEH      -0.106000
     19 C19         -0.8590     6.0970     0.3150 ca         1 BEH      -0.098000
     20 C20         -1.6890     5.7680     1.3690 ca         1 BEH      -0.088000
     21 C21         -1.3850     4.6930     2.1860 ca         1 BEH      -0.092300
     22 C22         -2.1180     4.1340     3.3870 c3         1 BEH       0.015900
     23 C23         -1.5470     2.7140     3.5840 c3         1 BEH       0.176100
     24 O24         -2.3290     1.7490     2.8800 oh         1 BEH      -0.577800
     25 C31          1.9390    -1.2500    -0.7210 c3         1 BEH       0.144100
     26 O32          1.5070    -2.4150    -0.0160 oh         1 BEH      -0.609800
     27 C33          1.3820    -1.2810    -2.1450 c3         1 BEH       0.083100
     28 O34          1.7080    -0.0580    -2.8100 os         1 BEH      -0.348600
     29 C35          0.6560     0.1980    -3.7420 c3         1 BEH       0.254700
     30 C36          0.9950     1.4170    -4.5600 ca         1 BEH      -0.110300
     31 C37          1.6970     1.2830    -5.7430 ca         1 BEH      -0.075500
     32 C38          2.0090     2.4010    -6.4940 ca         1 BEH      -0.108500
     33 C39          1.6180     3.6540    -6.0610 ca         1 BEH      -0.095000
     34 C40          0.9150     3.7900    -4.8780 ca         1 BEH      -0.108500
     35 C41          0.6000     2.6710    -4.1300 ca         1 BEH      -0.075500
     36 C42          1.9860    -2.4380    -2.8970 c          1 BEH       0.538100
     37 O43          2.7070    -2.2320    -3.8500 o          1 BEH      -0.623100
     38 N44          1.7250    -3.7020    -2.5100 ns         1 BEH      -0.211900
     39 C45          2.3130    -4.8280    -3.2400 c3         1 BEH       0.112300
     40 C46          1.8680    -6.1230    -2.6110 ca         1 BEH      -0.126300
     41 C47          0.7130    -6.7430    -3.0480 ca         1 BEH      -0.085000
     42 C48          0.3040    -7.9310    -2.4710 ca         1 BEH      -0.101500
     43 C49          1.0520    -8.4990    -1.4560 ca         1 BEH      -0.092000
     44 C50          2.2080    -7.8790    -1.0200 ca         1 BEH      -0.101500
     45 C51          2.6190    -6.6940    -1.6000 ca         1 BEH      -0.085000
     46 H011         1.7910     0.8840    -0.5110 h1         1 BEH       0.080700
     47 H021        -0.3140    -0.8440     0.2790 ho         1 BEH       0.399000
     48 H031         1.5020    -0.8330     1.9800 h1         1 BEH       0.027700
     49 H051         3.3060    -1.8510     2.5710 h1         1 BEH      -0.003300
     50 H052         3.3040    -0.3420     3.4940 h1         1 BEH      -0.003300
     51 H071         5.3590     0.8940     3.8730 ha         1 BEH       0.106500
     52 H081         7.8140     0.7780     4.0700 ha         1 BEH       0.103000
     53 H091         9.0440    -1.1020     3.0520 ha         1 BEH       0.101000
     54 H101         7.8180    -2.8680     1.8450 ha         1 BEH       0.103000
     55 H111         5.3630    -2.7520     1.6510 ha         1 BEH       0.106500
     56 H141        -0.4570     0.9090     2.0690 hn         1 BEH       0.203500
     57 H151         0.5840     3.0990     3.7360 h1         1 BEH       0.062700
     58 H171         1.4770     3.6930     0.6980 ha         1 BEH       0.120000
     59 H181         0.9300     5.6070    -0.7520 ha         1 BEH       0.105000
     60 H191        -1.1000     6.9390    -0.3230 ha         1 BEH       0.101000
     61 H201        -2.5810     6.3540     1.5570 ha         1 BEH       0.100000
     62 H221        -1.9210     4.7420     4.2610 hc         1 BEH       0.028700
     63 H222        -3.1820     4.0860     3.1860 hc         1 BEH       0.028700
     64 H231        -1.4850     2.4720     4.6380 h1         1 BEH       0.007700
     65 H241        -2.9160     1.3200     3.4800 ho         1 BEH       0.392000
     66 H311         3.0220    -1.2300    -0.7560 h1         1 BEH       0.048700
     67 H321         2.2590    -2.9170     0.2520 ho         1 BEH       0.408000
     68 H331         0.3050    -1.3960    -2.1090 h1         1 BEH       0.037700
     69 H351         0.5380    -0.6560    -4.3980 h1         1 BEH       0.002200
     70 H352        -0.2690     0.3700    -3.2050 h1         1 BEH       0.002200
     71 H371         2.0030     0.3010    -6.0820 ha         1 BEH       0.111000
     72 H381         2.5590     2.2950    -7.4210 ha         1 BEH       0.101500
     73 H391         1.8640     4.5310    -6.6470 ha         1 BEH       0.099000
     74 H401         0.6070     4.7720    -4.5400 ha         1 BEH       0.101500
     75 H411         0.0490     2.7770    -3.2030 ha         1 BEH       0.111000
     76 H441         1.0810    -3.8730    -1.7630 hn         1 BEH       0.191500
     77 H451         3.3930    -4.7600    -3.2000 h1         1 BEH       0.029200
     78 H452         1.9880    -4.7980    -4.2730 h1         1 BEH       0.029200
     79 H471         0.1270    -6.2980    -3.8430 ha         1 BEH       0.107000
     80 H481        -0.6020    -8.4160    -2.8130 ha         1 BEH       0.105000
     81 H491         0.7320    -9.4290    -1.0020 ha         1 BEH       0.104000
     82 H501         2.7960    -8.3260    -0.2270 ha         1 BEH       0.105000
     83 H511         3.5250    -6.2080    -1.2580 ha         1 BEH       0.107000
@<TRIPOS>BOND
     1     1     2 1   
     2     1     3 1   
     3     1    25 1   
     4     1    46 1   
     5     2    47 1   
     6     3     4 1   
     7     3    12 1   
     8     3    48 1   
     9     4     5 1   
    10     5     6 1   
    11     5    49 1   
    12     5    50 1   
    13     6     7 ar  
    14     6    11 ar  
    15     7     8 ar  
    16     7    51 1   
    17     8     9 ar  
    18     8    52 1   
    19     9    10 ar  
    20     9    53 1   
    21    10    11 ar  
    22    10    54 1   
    23    11    55 1   
    24    12    13 2   
    25    12    14 1   
    26    14    15 1   
    27    14    56 1   
    28    15    16 1   
    29    15    23 1   
    30    15    57 1   
    31    16    17 ar  
    32    16    21 ar  
    33    17    18 ar  
    34    17    58 1   
    35    18    19 ar  
    36    18    59 1   
    37    19    20 ar  
    38    19    60 1   
    39    20    21 ar  
    40    20    61 1   
    41    21    22 1   
    42    22    23 1   
    43    22    62 1   
    44    22    63 1   
    45    23    24 1   
    46    23    64 1   
    47    24    65 1   
    48    25    26 1   
    49    25    27 1   
    50    25    66 1   
    51    26    67 1   
    52    27    28 1   
    53    27    36 1   
    54    27    68 1   
    55    28    29 1   
    56    29    30 1   
    57    29    69 1   
    58    29    70 1   
    59    30    31 ar  
    60    30    35 ar  
    61    31    32 ar  
    62    31    71 1   
    63    32    33 ar  
    64    32    72 1   
    65    33    34 ar  
    66    33    73 1   
    67    34    35 ar  
    68    34    74 1   
    69    35    75 1   
    70    36    37 2   
    71    36    38 1   
    72    38    39 1   
    73    38    76 1   
    74    39    40 1   
    75    39    77 1   
    76    39    78 1   
    77    40    41 ar  
    78    40    45 ar  
    79    41    42 ar  
    80    41    79 1   
    81    42    43 ar  
    82    42    80 1   
    83    43    44 ar  
    84    43    81 1   
    85    44    45 ar  
    86    44    82 1   
    87    45    83 1   
@<TRIPOS>SUBSTRUCTURE
     1 BEH         1 TEMP              0 ****  ****    0 ROOT
