@<TRIPOS>MOLECULE
BEK
   21    21     1     0     0
SMALL
bcc


@<TRIPOS>ATOM
      1 C1           0.0000     0.0000     0.0000 c          1 BEK       0.372700
      2 O            1.2160     0.0000     0.0000 o          1 BEK      -0.361100
      3 N           -0.6730     0.0000     1.1670 nz         1 BEK       0.206600
      4 C2          -0.7380    -0.0010    -1.2760 ca         1 BEK      -0.291600
      5 C3          -1.0880    -1.2130    -1.8840 ca         1 BEK       0.152400
      6 C7          -1.0900     1.2090    -1.8850 ca         1 BEK       0.152400
      7 F3          -0.7520    -2.3840    -1.3020 f          1 BEK      -0.094400
      8 F7          -0.7540     2.3820    -1.3040 f          1 BEK      -0.094400
      9 C4          -1.7780    -1.2080    -3.0800 ca         1 BEK       0.093400
     10 C6          -1.7740     1.2020    -3.0830 ca         1 BEK       0.093400
     11 C5          -2.1240    -0.0030    -3.6800 ca         1 BEK       0.172100
     12 F4          -2.1170    -2.3760    -3.6670 f          1 BEK      -0.073900
     13 F6          -2.1150     2.3700    -3.6720 f          1 BEK      -0.073900
     14 O5          -2.8030    -0.0040    -4.8570 os         1 BEK      -0.276900
     15 C8          -4.1930    -0.0040    -4.5320 c3         1 BEK       0.240700
     16 HN1         -0.5500     0.8820     1.6230 hn         1 BEK       0.251133
     17 HN2         -0.3230    -0.7310     1.7540 hn         1 BEK       0.251133
     18 H81         -4.5960    -1.0000    -4.6680 h1         1 BEK       0.009700
     19 H82         -4.3230     0.3000    -3.5000 h1         1 BEK       0.009700
     20 H83         -4.7160     0.6890    -5.1800 h1         1 BEK       0.009700
     21 HN3         -1.6480    -0.1430     0.9900 hn         1 BEK       0.251133
@<TRIPOS>BOND
     1     1     2 2   
     2     1     3 1   
     3     1     4 1   
     4     3    16 1   
     5     3    17 1   
     6     3    21 1   
     7     4     5 ar  
     8     4     6 ar  
     9     5     7 1   
    10     5     9 ar  
    11     6     8 1   
    12     6    10 ar  
    13     9    11 ar  
    14     9    12 1   
    15    10    11 ar  
    16    10    13 1   
    17    11    14 1   
    18    14    15 1   
    19    15    18 1   
    20    15    19 1   
    21    15    20 1   
@<TRIPOS>SUBSTRUCTURE
     1 BEK         1 TEMP              0 ****  ****    0 ROOT
