@<TRIPOS>MOLECULE
molecule
   21    21     1     0     0
SMALL
bcc


@<TRIPOS>ATOM
      1 C1           0.0000     0.0000     0.0000 c          1 BEK       0.525700
      2 O            1.2160     0.0000     0.0000 o          1 BEK      -0.353100
      3 N           -0.6730     0.0000     1.1670 nz         1 BEK      -0.679400
      4 C2          -0.7380    -0.0010    -1.2760 ca         1 BEK      -0.278600
      5 C3          -1.0880    -1.2130    -1.8840 ca         1 BEK       0.156900
      6 C7          -1.0900     1.2090    -1.8850 ca         1 BEK       0.156900
      7 F3          -0.7520    -2.3840    -1.3020 f          1 BEK      -0.099400
      8 F7          -0.7540     2.3820    -1.3040 f          1 BEK      -0.099400
      9 C4          -1.7780    -1.2080    -3.0800 ca         1 BEK       0.110900
     10 C6          -1.7740     1.2020    -3.0830 ca         1 BEK       0.110900
     11 C5          -2.1240    -0.0030    -3.6800 ca         1 BEK       0.133100
     12 F4          -2.1170    -2.3760    -3.6670 f          1 BEK      -0.071900
     13 F6          -2.1150     2.3700    -3.6720 f          1 BEK      -0.071900
     14 O5          -2.8030    -0.0040    -4.8570 os         1 BEK      -0.277900
     15 C8          -4.1930    -0.0040    -4.5320 c3         1 BEK       0.108700
     16 HN1         -0.5500     0.8820     1.6230 hn         1 BEK       0.484133
     17 HN2         -0.3230    -0.7310     1.7540 hn         1 BEK       0.484133
     18 H81         -4.5960    -1.0000    -4.6680 h1         1 BEK       0.059033
     19 H82         -4.3230     0.3000    -3.5000 h1         1 BEK       0.059033
     20 H83         -4.7160     0.6890    -5.1800 h1         1 BEK       0.059033
     21 HN3         -1.6480    -0.1430     0.9900 hn         1 BEK       0.484133
@<TRIPOS>BOND
     1     1     2 2
     2     1     3 1
     3     1     4 1
     4     3    16 1
     5     3    17 1
     6     4     5 ar
     7     4     6 ar
     8     5     7 1
     9     5     9 ar
    10     6     8 1
    11     6    10 ar
    12     9    11 ar
    13     9    12 1
    14    10    11 ar
    15    10    13 1
    16    11    14 1
    17    14    15 1
    18    15    18 1
    19    15    19 1
    20    15    20 1
    21    21     3 1
@<TRIPOS>SUBSTRUCTURE
     1 BEK         1 TEMP              0 ****  ****    0 ROOT
