@<TRIPOS>MOLECULE
BEL
   41    41     1     0     0
SMALL
bcc


@<TRIPOS>ATOM
      1 O1           0.0000     0.0000     0.0000 o          1 BEL      -0.427000
      2 N1           1.2180     0.0000     0.0000 no         1 BEL       1.041200
      3 O2           1.8270     0.0000     1.0550 o          1 BEL      -0.427000
      4 C1           1.9590    -0.0080    -1.2820 ca         1 BEL      -0.441200
      5 C2           1.2650    -0.0140    -2.4780 ca         1 BEL       0.080000
      6 C3           1.9480    -0.0220    -3.6770 ca         1 BEL      -0.426200
      7 C4           3.3440    -0.0230    -3.6860 ca         1 BEL       0.014400
      8 C5           4.0440    -0.0160    -2.4790 ca         1 BEL      -0.161000
      9 C6           3.3480    -0.0030    -1.2790 ca         1 BEL       0.136600
     10 N2           4.0440     0.0050    -0.0680 nh         1 BEL      -0.367000
     11 C7           4.8590    -1.2180    -0.0420 c3         1 BEL       0.115800
     12 C8           3.9420    -2.4410     0.0040 c3         1 BEL       0.136000
     13 Br1          5.0290    -4.0670     0.2030 br         1 BEL      -0.210900
     14 C9           4.9800     1.1350    -0.1260 c3         1 BEL       0.115800
     15 C10          5.4980     1.4410     1.2820 c3         1 BEL       0.136000
     16 Br2          6.6240     3.0520     1.2290 br         1 BEL      -0.210900
     17 C11          4.0780    -0.0310    -4.9680 c          1 BEL       0.566700
     18 O3           3.8590    -0.9020    -5.7880 o          1 BEL      -0.586100
     19 N3           4.9900     0.9260    -5.2290 ns         1 BEL      -0.178900
     20 C12          5.7170     0.9170    -6.5010 c3         1 BEL      -0.041000
     21 C13          6.6700     2.0840    -6.5440 c          1 BEL       0.468100
     22 O4           6.7350     2.8450    -5.6080 o          1 BEL      -0.500100
     23 C14          7.5300     2.2990    -7.7360 c          1 BEL       0.558900
     24 O5           8.2940     3.2350    -7.7700 o          1 BEL      -0.474100
     25 N4           1.2010    -0.0290    -4.9550 no         1 BEL       1.040200
     26 O6           1.7970     0.0880    -6.0100 o          1 BEL      -0.426000
     27 O7          -0.0110    -0.1520    -4.9510 o          1 BEL      -0.426000
     28 H2           0.1820    -0.0130    -2.4730 ha         1 BEL       0.166000
     29 H5           5.1270    -0.0140    -2.4790 ha         1 BEL       0.143000
     30 H71          5.4740    -1.2610    -0.9340 h1         1 BEL       0.033200
     31 H72          5.4950    -1.2100     0.8350 h1         1 BEL       0.033200
     32 H81          3.2660    -2.3530     0.8460 h1         1 BEL       0.042700
     33 H82          3.3700    -2.4980    -0.9140 h1         1 BEL       0.042700
     34 H91          5.8140     0.8810    -0.7700 h1         1 BEL       0.033200
     35 H92          4.4710     2.0060    -0.5210 h1         1 BEL       0.033200
     36 H101         4.6600     1.6080     1.9470 h1         1 BEL       0.042700
     37 H102         6.0840     0.6040     1.6410 h1         1 BEL       0.042700
     38 HN3          5.1600     1.6520    -4.5610 hn         1 BEL       0.195500
     39 H121         5.0130     0.9950    -7.3210 h1         1 BEL       0.055200
     40 H122         6.2750    -0.0080    -6.5910 h1         1 BEL       0.055200
     41 H14          7.4710     1.6170    -8.5760 h4         1 BEL      -0.023800
@<TRIPOS>BOND
     1     1     2 1   
     2     2     3 1   
     3     2     4 1   
     4     4     5 ar  
     5     4     9 ar  
     6     5     6 ar  
     7     5    28 1   
     8     6     7 ar  
     9     6    25 1   
    10     7     8 ar  
    11     7    17 1   
    12     8     9 ar  
    13     8    29 1   
    14     9    10 1   
    15    10    11 1   
    16    10    14 1   
    17    11    12 1   
    18    11    30 1   
    19    11    31 1   
    20    12    13 1   
    21    12    32 1   
    22    12    33 1   
    23    14    15 1   
    24    14    34 1   
    25    14    35 1   
    26    15    16 1   
    27    15    36 1   
    28    15    37 1   
    29    17    18 2   
    30    17    19 1   
    31    19    20 1   
    32    19    38 1   
    33    20    21 1   
    34    20    39 1   
    35    20    40 1   
    36    21    22 2   
    37    21    23 1   
    38    23    24 2   
    39    23    41 1   
    40    25    26 1   
    41    25    27 1   
@<TRIPOS>SUBSTRUCTURE
     1 BEL         1 TEMP              0 ****  ****    0 ROOT
