@<TRIPOS>MOLECULE
molecule
   18    18     1     0     0
SMALL
bcc


@<TRIPOS>ATOM
      1 C1           0.0000     0.0000     0.0000 ca         1 BEN      -0.198900
      2 C2           1.3950     0.0000     0.0000 ca         1 BEN      -0.084000
      3 C3           2.0810     0.0000     1.1970 ca         1 BEN      -0.111500
      4 C4           1.3900     0.0000     2.3940 ca         1 BEN      -0.064000
      5 C5           0.0060    -0.0020     2.4000 ca         1 BEN      -0.111500
      6 C6          -0.6920     0.0040     1.2100 ca         1 BEN      -0.084000
      7 C           -0.7420     0.0000    -1.2810 ce         1 BEN       0.544800
      8 N1          -0.0940     0.0000    -2.4100 n2         1 BEN      -0.682100
      9 N2          -2.1200    -0.0010    -1.2790 nz         1 BEN      -0.802600
     10 H2           1.9380    -0.0020    -0.9370 ha         1 BEN       0.138000
     11 H3           3.1640     0.0010     1.1990 ha         1 BEN       0.163000
     12 H4           1.9330    -0.0020     3.3310 ha         1 BEN       0.163000
     13 H5          -0.5310    -0.0000     3.3410 ha         1 BEN       0.163000
     14 H6          -1.7750     0.0030     1.2160 ha         1 BEN       0.138000
     15 HN1         -0.5960    -0.0000    -3.2760 hn         1 BEN       0.433400
     16 HN21        -2.4530     0.8170    -0.8080 hn         1 BEN       0.465133
     17 HN22        -2.4520    -0.8180    -0.8050 hn         1 BEN       0.465133
     18 H23         -2.4550    -0.0030    -2.2220 hn         1 BEN       0.465133
@<TRIPOS>BOND
     1     1     2 ar
     2     1     6 ar
     3     1     7 1
     4     2     3 ar
     5     2    10 1
     6     3     4 ar
     7     3    11 1
     8     4     5 ar
     9     4    12 1
    10     5     6 ar
    11     5    13 1
    12     6    14 1
    13     7     8 2
    14     7     9 1
    15     8    15 1
    16     9    16 1
    17     9    17 1
    18    18     9 1
@<TRIPOS>SUBSTRUCTURE
     1 BEN         1 TEMP              0 ****  ****    0 ROOT
