@<TRIPOS>MOLECULE
molecule
   11    10     1     0     0
SMALL
bcc


@<TRIPOS>ATOM
      1 C1           0.0000     0.0000     0.0000 c          1 BEO       0.872800
      2 O1           1.2150     0.0000     0.0000 o          1 BEO      -0.850300
      3 O2          -0.6740     0.0000     1.1670 o          1 BEO      -0.850300
      4 C2          -0.7330     0.0000    -1.2720 ce         1 BEO      -0.184200
      5 C3          -0.0680     0.0000    -2.4250 c2         1 BEO      -0.222200
      6 C4          -0.8200     0.0000    -3.7300 c3         1 BEO      -0.052900
      7 H2          -1.8170     0.0000    -1.2720 ha         1 BEO       0.097000
      8 H3           1.0150     0.0000    -2.4240 ha         1 BEO       0.139000
      9 H41         -1.4420    -0.8850    -3.7890 hc         1 BEO       0.017033
     10 H42         -1.4420     0.8840    -3.7890 hc         1 BEO       0.017033
     11 H43         -0.1150     0.0000    -4.5530 hc         1 BEO       0.017033
@<TRIPOS>BOND
     1     1     2 1
     2     1     3 1
     3     1     4 1
     4     4     5 2
     5     4     7 1
     6     5     6 1
     7     5     8 1
     8     6     9 1
     9     6    10 1
    10     6    11 1
@<TRIPOS>SUBSTRUCTURE
     1 BEO         1 TEMP              0 ****  ****    0 ROOT
