@<TRIPOS>MOLECULE
BEO
   11    10     1     0     0
SMALL
bcc


@<TRIPOS>ATOM
      1 C1          0.1250   -0.0590    0.0380 c         1 BEO      0.890800
      2 O1          0.9780   -0.9940    0.0570 o         1 BEO     -0.844800
      3 O2         -0.2140    0.5980    1.0670 o         1 BEO     -0.844800
      4 C2         -0.5390    0.3120   -1.2670 ce        1 BEO     -0.195200
      5 C3         -0.2790   -0.2980   -2.4250 c2        1 BEO     -0.223200
      6 C4         -0.9110    0.0420   -3.7140 c3        1 BEO     -0.044900
      7 H2         -1.2660    1.1350   -1.1920 ha        1 BEO      0.093000
      8 H3          0.4580   -1.1190   -2.4520 ha        1 BEO      0.131000
      9 H41        -1.6430    0.8810   -3.6100 hc        1 BEO      0.012033
     10 H42        -0.1360    0.3480   -4.4610 hc        1 BEO      0.012033
     11 H43        -1.4550   -0.8450   -4.1280 hc        1 BEO      0.012033
@<TRIPOS>BOND
     1    1    2 1   
     2    1    3 1   
     3    1    4 1   
     4    4    5 2   
     5    4    7 1   
     6    5    6 1   
     7    5    8 1   
     8    6    9 1   
     9    6   10 1   
    10    6   11 1   
@<TRIPOS>SUBSTRUCTURE
     1 BEO         1 TEMP              0 ****  ****    0 ROOT
