@<TRIPOS>MOLECULE
BEP
   61    63     1     0     0
SMALL
bcc


@<TRIPOS>ATOM
      1 C1           0.0000     0.0000     0.0000 c3         1 BEP       0.143400
      2 C2           1.5290     0.0000     0.0000 c3         1 BEP       0.080500
      3 C3           2.0390     0.0000     1.4420 c3         1 BEP       0.162800
      4 O1          -0.4760    -0.1590    -1.3380 os         1 BEP      -0.386600
      5 N2           2.0180     1.1990    -0.6920 n3         1 BEP      -0.520600
      6 N3           3.5030     0.0000     1.4430 nh         1 BEP      -0.351000
      7 C4          -1.8980    -0.2810    -1.2590 c3         1 BEP       0.187400
      8 C5          -2.4610    -0.6000    -2.6460 c3         1 BEP      -0.062700
      9 C6          -3.9710    -0.8230    -2.5440 c3         1 BEP       0.004400
     10 C7          -2.1820     0.5690    -3.5900 c3         1 BEP       0.004400
     11 C8           1.5270     1.1180    -2.0790 c3         1 BEP       0.107800
     12 C9           0.5580     2.3000    -2.2910 c3         1 BEP      -0.042900
     13 C10          0.9920     3.3080    -1.1940 c3         1 BEP      -0.042900
     14 C11          1.3820     2.3600    -0.0330 c3         1 BEP       0.107800
     15 C12          4.2350     1.2680     1.4430 c3         1 BEP       0.207100
     16 C13          4.4870     1.7030     2.8630 ca         1 BEP      -0.117300
     17 C14          5.6380     1.3040     3.5150 ca         1 BEP      -0.095500
     18 C15          5.8690     1.7040     4.8180 ca         1 BEP      -0.100000
     19 C16          4.9470     2.5030     5.4690 ca         1 BEP      -0.100000
     20 C17          3.7960     2.9010     4.8170 ca         1 BEP      -0.100000
     21 C18          3.5680     2.5070     3.5130 ca         1 BEP      -0.095500
     22 C19          4.2020    -1.2090     1.4430 ca         1 BEP       0.087600
     23 C20          5.5910    -1.2110     1.4440 ca         1 BEP      -0.204000
     24 C21          6.2790    -2.4080     1.4440 ca         1 BEP      -0.048000
     25 C22          5.5860    -3.6050     1.4430 ca         1 BEP      -0.168000
     26 C23          4.2040    -3.6060     1.4430 ca         1 BEP      -0.048000
     27 C24          3.5100    -2.4130     1.4480 ca         1 BEP      -0.204000
     28 H11         -0.3610    -0.8180     0.6110 h1         1 BEP       0.013200
     29 H12         -0.3610     0.9380     0.4030 h1         1 BEP       0.013200
     30 H21          1.8900    -0.8840    -0.5110 h1         1 BEP       0.059700
     31 H31          1.6780    -0.8850     1.9520 h1         1 BEP       0.031200
     32 H32          1.6770     0.8840     1.9530 h1         1 BEP       0.031200
     33 H41         -2.1540    -1.0800    -0.5730 h1         1 BEP      -0.001800
     34 H42         -2.3220     0.6500    -0.9030 h1         1 BEP      -0.001800
     35 H51         -1.9880    -1.4960    -3.0300 hc         1 BEP       0.035700
     36 H61         -4.1720    -1.6130    -1.8300 hc         1 BEP       0.006033
     37 H62         -4.4500     0.0910    -2.2150 hc         1 BEP       0.006033
     38 H63         -4.3600    -1.1050    -3.5140 hc         1 BEP       0.006033
     39 H71         -1.1500     0.5310    -3.9160 hc         1 BEP       0.006033
     40 H72         -2.8350     0.5000    -4.4520 hc         1 BEP       0.006033
     41 H73         -2.3640     1.5030    -3.0730 hc         1 BEP       0.006033
     42 H81          1.0030     0.1820    -2.2300 h1         1 BEP       0.036200
     43 H82          2.3590     1.1970    -2.7690 h1         1 BEP       0.036200
     44 H91          0.6900     2.7290    -3.2770 hc         1 BEP       0.023950
     45 H92         -0.4670     1.9860    -2.1360 hc         1 BEP       0.023950
     46 H101         1.8460     3.8900    -1.5200 hc         1 BEP       0.023950
     47 H102         0.1650     3.9470    -0.9080 hc         1 BEP       0.023950
     48 H111         2.0850     2.8470     0.6300 h1         1 BEP       0.036200
     49 H112         0.4980     2.0460     0.5090 h1         1 BEP       0.036200
     50 H121         3.6490     2.0230     0.9320 h1         1 BEP       0.044200
     51 H122         5.1810     1.1390     0.9320 h1         1 BEP       0.044200
     52 H141         6.3600     0.6790     3.0050 ha         1 BEP       0.109000
     53 H151         6.7720     1.3910     5.3290 ha         1 BEP       0.102000
     54 H161         5.1270     2.8140     6.4910 ha         1 BEP       0.101000
     55 H171         3.0750     3.5290     5.3270 ha         1 BEP       0.102000
     56 H181         2.6650     2.8200     3.0020 ha         1 BEP       0.109000
     57 H201         6.1340    -0.2730     1.4440 ha         1 BEP       0.118500
     58 H211         7.3620    -2.4100     1.4440 ha         1 BEP       0.095000
     59 H221         6.1280    -4.5430     1.4410 ha         1 BEP       0.102000
     60 H231         3.6640    -4.5460     1.4450 ha         1 BEP       0.095000
     61 H241         2.4270    -2.4150     1.4480 ha         1 BEP       0.118500
@<TRIPOS>BOND
     1     1     2 1   
     2     1     4 1   
     3     1    28 1   
     4     1    29 1   
     5     2     3 1   
     6     2     5 1   
     7     2    30 1   
     8     3     6 1   
     9     3    31 1   
    10     3    32 1   
    11     4     7 1   
    12     5    11 1   
    13     5    14 1   
    14     6    15 1   
    15     6    22 1   
    16     7     8 1   
    17     7    33 1   
    18     7    34 1   
    19     8     9 1   
    20     8    10 1   
    21     8    35 1   
    22     9    36 1   
    23     9    37 1   
    24     9    38 1   
    25    10    39 1   
    26    10    40 1   
    27    10    41 1   
    28    11    12 1   
    29    11    42 1   
    30    11    43 1   
    31    12    13 1   
    32    12    44 1   
    33    12    45 1   
    34    13    14 1   
    35    13    46 1   
    36    13    47 1   
    37    14    48 1   
    38    14    49 1   
    39    15    16 1   
    40    15    50 1   
    41    15    51 1   
    42    16    17 ar  
    43    16    21 ar  
    44    17    18 ar  
    45    17    52 1   
    46    18    19 ar  
    47    18    53 1   
    48    19    20 ar  
    49    19    54 1   
    50    20    21 ar  
    51    20    55 1   
    52    21    56 1   
    53    22    23 ar  
    54    22    27 ar  
    55    23    24 ar  
    56    23    57 1   
    57    24    25 ar  
    58    24    58 1   
    59    25    26 ar  
    60    25    59 1   
    61    26    27 ar  
    62    26    60 1   
    63    27    61 1   
@<TRIPOS>SUBSTRUCTURE
     1 BEP         1 TEMP              0 ****  ****    0 ROOT
