@<TRIPOS>MOLECULE
BEQ
   62    61     1     0     0
SMALL
bcc


@<TRIPOS>ATOM
      1 N1           0.0000     0.0000     0.0000 n4         1 BEQ      -0.016800
      2 CB           1.5350     0.0000     0.0000 c3         1 BEQ       0.059100
      3 CG          -0.4770     0.0000     1.4590 c3         1 BEQ       0.059100
      4 CD          -0.4760    -1.3030    -0.6570 c3         1 BEQ      -0.139200
      5 CE          -1.9840    -1.4870    -0.7490 c          1 BEQ       1.006600
      6 OE1         -2.6130    -0.6140    -1.4080 o          1 BEQ      -0.827300
      7 OE2         -2.4210    -2.5070    -0.1430 o          1 BEQ      -0.827300
      8 C1          -0.5270     1.1800    -0.7280 c3         1 BEQ       0.005800
      9 C2          -0.0630     1.1190    -2.1770 c3         1 BEQ      -0.082400
     10 C3          -0.5260     2.3290    -2.9850 c3         1 BEQ       0.072000
     11 N2          -1.9690     2.4190    -2.9990 ns         1 BEQ      -0.234900
     12 C4          -2.7590     1.8140    -3.9670 c          1 BEQ       0.623100
     13 O           -2.3420     1.1430    -4.9070 o          1 BEQ      -0.616100
     14 C5          -4.2350     2.0820    -3.7270 c3         1 BEQ      -0.109400
     15 C6          -5.1260     1.4260    -4.7800 c3         1 BEQ      -0.013400
     16 C7          -6.6010     1.7440    -4.5360 c3         1 BEQ      -0.026400
     17 C8          -7.4970     1.0600    -5.5700 c3         1 BEQ      -0.023400
     18 C9          -8.9760     1.3530    -5.3060 c3         1 BEQ      -0.022400
     19 C10         -9.8670     0.6940    -6.3590 c3         1 BEQ      -0.021400
     20 C11        -11.3620     0.9630    -6.1480 c3         1 BEQ      -0.023400
     21 C12        -12.3040     0.3460    -7.1870 c3         1 BEQ      -0.018400
     22 C13        -13.7750     0.6960    -6.9540 c3         1 BEQ      -0.022400
     23 C14        -14.7140     0.0720    -7.9900 c3         1 BEQ      -0.025400
     24 C15        -16.1700     0.4750    -7.8070 c3         1 BEQ       0.010900
     25 HB1          1.8960     1.0070     0.1690 hx         1 BEQ       0.054033
     26 HB2          1.8960    -0.6500     0.7880 hx         1 BEQ       0.054033
     27 HB3          1.8960    -0.3580    -0.9570 hx         1 BEQ       0.054033
     28 HG1         -0.0400     0.8420     1.9820 hx         1 BEQ       0.054033
     29 HG2         -1.5570     0.0790     1.4860 hx         1 BEQ       0.054033
     30 HG3         -0.1700    -0.9210     1.9390 hx         1 BEQ       0.054033
     31 HD1         -0.0700    -1.3430    -1.6610 hx         1 BEQ       0.062200
     32 HD2         -0.0690    -2.1340    -0.0930 hx         1 BEQ       0.062200
     33 H11         -0.1560     2.0860    -0.2660 hx         1 BEQ       0.080700
     34 H12         -1.6100     1.1730    -0.6930 hx         1 BEQ       0.080700
     35 H21         -0.4580     0.2200    -2.6350 hc         1 BEQ       0.047200
     36 H22          1.0190     1.0770    -2.1980 hc         1 BEQ       0.047200
     37 H31         -0.1180     3.2290    -2.5430 h1         1 BEQ       0.023700
     38 H32         -0.1660     2.2370    -4.0020 h1         1 BEQ       0.023700
     39 HN2         -2.4200     2.9460    -2.2780 hn         1 BEQ       0.173500
     40 H51         -4.4030     3.1520    -3.7440 hc         1 BEQ       0.032200
     41 H52         -4.5060     1.7000    -2.7510 hc         1 BEQ       0.032200
     42 H61         -4.9840     0.3520    -4.7440 hc         1 BEQ       0.028700
     43 H62         -4.8420     1.7880    -5.7600 hc         1 BEQ       0.028700
     44 H71         -6.7470     2.8160    -4.5960 hc         1 BEQ       0.010200
     45 H72         -6.8790     1.4030    -3.5460 hc         1 BEQ       0.010200
     46 H81         -7.2350     1.4190    -6.5580 hc         1 BEQ       0.015200
     47 H82         -7.3340    -0.0100    -5.5270 hc         1 BEQ       0.015200
     48 H91         -9.1340     2.4240    -5.3260 hc         1 BEQ       0.011200
     49 H92         -9.2430     0.9730    -4.3270 hc         1 BEQ       0.011200
     50 H101        -9.5830     1.0670    -7.3360 hc         1 BEQ       0.011200
     51 H102        -9.7010    -0.3760    -6.3340 hc         1 BEQ       0.011200
     52 H111       -11.6380     0.5800    -5.1720 hc         1 BEQ       0.008200
     53 H112       -11.5150     2.0350    -6.1480 hc         1 BEQ       0.008200
     54 H121       -12.1940    -0.7310    -7.1580 hc         1 BEQ       0.010200
     55 H122       -12.0150     0.6990    -8.1690 hc         1 BEQ       0.010200
     56 H131       -14.0640     0.3470    -5.9690 hc         1 BEQ       0.010200
     57 H132       -13.8860     1.7730    -6.9880 hc         1 BEQ       0.010200
     58 H141       -14.3920     0.3780    -8.9780 hc         1 BEQ       0.008700
     59 H142       -14.6410    -1.0060    -7.9190 hc         1 BEQ       0.008700
     60 H151       -16.5060     0.1740    -6.8220 hc         1 BEQ       0.000033
     61 H152       -16.2620     1.5500    -7.9070 hc         1 BEQ       0.000033
     62 H153       -16.7770    -0.0120    -8.5610 hc         1 BEQ       0.000033
@<TRIPOS>BOND
     1     1     2 1   
     2     1     3 1   
     3     1     4 1   
     4     1     8 1   
     5     2    25 1   
     6     2    26 1   
     7     2    27 1   
     8     3    28 1   
     9     3    29 1   
    10     3    30 1   
    11     4     5 1   
    12     4    31 1   
    13     4    32 1   
    14     5     6 1   
    15     5     7 1   
    16     8     9 1   
    17     8    33 1   
    18     8    34 1   
    19     9    10 1   
    20     9    35 1   
    21     9    36 1   
    22    10    11 1   
    23    10    37 1   
    24    10    38 1   
    25    11    12 1   
    26    11    39 1   
    27    12    13 2   
    28    12    14 1   
    29    14    15 1   
    30    14    40 1   
    31    14    41 1   
    32    15    16 1   
    33    15    42 1   
    34    15    43 1   
    35    16    17 1   
    36    16    44 1   
    37    16    45 1   
    38    17    18 1   
    39    17    46 1   
    40    17    47 1   
    41    18    19 1   
    42    18    48 1   
    43    18    49 1   
    44    19    20 1   
    45    19    50 1   
    46    19    51 1   
    47    20    21 1   
    48    20    52 1   
    49    20    53 1   
    50    21    22 1   
    51    21    54 1   
    52    21    55 1   
    53    22    23 1   
    54    22    56 1   
    55    22    57 1   
    56    23    24 1   
    57    23    58 1   
    58    23    59 1   
    59    24    60 1   
    60    24    61 1   
    61    24    62 1   
@<TRIPOS>SUBSTRUCTURE
     1 BEQ         1 TEMP              0 ****  ****    0 ROOT
