@<TRIPOS>MOLECULE
molecule
   43    47     1     0     0
SMALL
bcc


@<TRIPOS>ATOM
      1 C1           0.0000     0.0000     0.0000 ca         1 BER       0.016700
      2 C2           1.4860     0.0000     0.0000 ca         1 BER      -0.092000
      3 N1          -0.6610     0.3410     1.1110 na         1 BER       0.074900
      4 C3          -0.6670    -0.3350    -1.1660 ca         1 BER      -0.088000
      5 C4           2.1570     0.0000     1.2210 ca         1 BER      -0.068300
      6 C5           2.1810    -0.0330    -1.2130 ca         1 BER      -0.083000
      7 C6          -1.9770     0.3130     1.1680 ca         1 BER       0.007700
      8 C7           0.0670     0.7710     2.3100 c3         1 BER      -0.000700
      9 C8          -2.0690    -0.3640    -1.1620 ca         1 BER      -0.007000
     10 C9           3.5400     0.0150     1.2870 ca         1 BER      -0.103000
     11 C10          1.3470    -0.0350     2.4940 c3         1 BER      -0.049100
     12 C11          3.5660    -0.0220    -1.1490 ca         1 BER       0.063100
     13 C12         -2.7400    -0.0450     0.0500 ca         1 BER      -0.078000
     14 C13         -2.8130    -0.6990    -2.3020 ca         1 BER      -0.092000
     15 C14          4.2370     0.0080     0.0850 ca         1 BER       0.099100
     16 O1           4.4820    -0.0400    -2.1440 os         1 BER      -0.305900
     17 C15         -4.1460    -0.0870     0.0890 ca         1 BER       0.086100
     18 C16         -4.1740    -0.7310    -2.2390 ca         1 BER      -0.138000
     19 O2           5.5700     0.0200    -0.1460 os         1 BER      -0.299900
     20 C17          5.7280    -0.4070    -1.5150 c3         1 BER       0.328200
     21 C18         -4.8450    -0.4330    -1.0510 ca         1 BER       0.134100
     22 O3          -4.8090     0.2050     1.2390 os         1 BER      -0.302900
     23 O4          -6.2040    -0.4780    -1.0190 os         1 BER      -0.257900
     24 C19         -5.0610     1.6110     1.2240 c3         1 BER       0.102700
     25 C20         -6.6360    -0.8530    -2.3290 c3         1 BER       0.091700
     26 H31         -0.1180    -0.7480    -2.0040 ha         1 BER       0.189000
     27 H51          1.6790     0.2430    -2.1330 ha         1 BER       0.162000
     28 H61         -2.4760     0.5640     2.0970 h4         1 BER       0.208000
     29 H71         -0.5660     0.6310     3.1780 h1         1 BER       0.096700
     30 H72          0.3200     1.8200     2.2130 h1         1 BER       0.096700
     31 H91          4.0420    -0.2640     2.2050 ha         1 BER       0.172000
     32 H101         1.9290     0.3940     3.3010 hc         1 BER       0.090700
     33 H102         1.0950    -1.0620     2.7300 hc         1 BER       0.090700
     34 H131        -2.3070    -0.9330    -3.2310 ha         1 BER       0.166000
     35 H161        -4.7430    -1.0000    -3.1200 ha         1 BER       0.178000
     36 H171         5.8730    -1.4800    -1.5620 h2         1 BER       0.090200
     37 H172         6.5550     0.1150    -1.9810 h2         1 BER       0.090200
     38 H191        -4.9030     2.0160     2.2160 h1         1 BER       0.051367
     39 H192        -4.3870     2.0910     0.5260 h1         1 BER       0.051367
     40 H193        -6.0850     1.7910     0.9200 h1         1 BER       0.051367
     41 H201        -6.2280    -1.8240    -2.5790 h1         1 BER       0.059700
     42 H202        -6.2900    -0.1190    -3.0470 h1         1 BER       0.059700
     43 H203        -7.7180    -0.8990    -2.3530 h1         1 BER       0.059700
@<TRIPOS>BOND
     1     1     2 1
     2     1     3 1
     3     1     4 ar
     4     2     5 ar
     5     2     6 ar
     6     3     7 2
     7     3     8 1
     8     4     9 ar
     9     4    26 1
    10     5    10 ar
    11     5    11 1
    12     6    12 ar
    13     6    27 1
    14     7    13 ar
    15     7    28 1
    16     8    11 1
    17     8    29 1
    18     8    30 1
    19     9    13 ar
    20     9    14 ar
    21    10    15 ar
    22    10    31 1
    23    11    32 1
    24    11    33 1
    25    12    15 ar
    26    12    16 1
    27    13    17 ar
    28    14    18 ar
    29    14    34 1
    30    15    19 1
    31    16    20 1
    32    17    21 ar
    33    17    22 1
    34    18    21 ar
    35    18    35 1
    36    19    20 1
    37    20    36 1
    38    20    37 1
    39    21    23 1
    40    22    24 1
    41    23    25 1
    42    24    38 1
    43    24    39 1
    44    24    40 1
    45    25    41 1
    46    25    42 1
    47    25    43 1
@<TRIPOS>SUBSTRUCTURE
     1 BER         1 TEMP              0 ****  ****    0 ROOT
