@<TRIPOS>MOLECULE
BER
   43    47     1     0     0
SMALL
bcc


@<TRIPOS>ATOM
      1 C1          0.1860    0.0010   -0.0590 ca        1 BER      0.038700
      2 C2          1.6510   -0.0650   -0.0130 ca        1 BER     -0.090000
      3 N1         -0.5010    0.4870    1.0680 na        1 BER      0.017900
      4 C3         -0.5380   -0.4160   -1.1650 ca        1 BER     -0.108000
      5 C4          2.3060   -0.0890    1.2300 ca        1 BER     -0.054300
      6 C5          2.3770   -0.1140   -1.2280 ca        1 BER     -0.084000
      7 C6         -1.8440    0.5760    1.0670 ca        1 BER      0.059700
      8 C7          0.2670    0.8850    2.2520 c3        1 BER      0.000300
      9 C8         -1.9560   -0.3280   -1.2030 ca        1 BER      0.018000
     10 C9          3.7060   -0.2120    1.3310 ca        1 BER     -0.112000
     11 C10         1.5020    0.0190    2.4760 c3        1 BER     -0.056100
     12 C11         3.7440   -0.2310   -1.1190 ca        1 BER      0.066100
     13 C12        -2.6230    0.1910   -0.0550 ca        1 BER     -0.109000
     14 C13        -2.7170   -0.7300   -2.3180 ca        1 BER     -0.130000
     15 C14         4.4030   -0.2870    0.1430 ca        1 BER      0.108100
     16 O1          4.6870   -0.3060   -2.1320 os        1 BER     -0.319900
     17 C15        -4.0480    0.3050   -0.0400 ca        1 BER      0.164100
     18 C16        -4.0930   -0.6190   -2.2990 ca        1 BER     -0.089000
     19 O2          5.7650   -0.4030   -0.0570 os        1 BER     -0.312900
     20 C17         5.9850   -0.4200   -1.4930 c3        1 BER      0.320200
     21 C18        -4.7720   -0.1040   -1.1720 ca        1 BER      0.071100
     22 O3         -4.5410    0.8190    1.1280 os        1 BER     -0.336900
     23 O4         -6.1420    0.0240   -1.1110 os        1 BER     -0.325900
     24 C19        -5.9550    0.9970    1.2620 c3        1 BER      0.124700
     25 C20        -6.8820   -0.3850   -2.2630 c3        1 BER      0.106700
     26 H31        -0.0120   -0.8370   -2.0380 ha        1 BER      0.185000
     27 H51         1.8890   -0.0490   -2.2090 ha        1 BER      0.165000
     28 H61        -2.3480    0.9660    1.9800 h4        1 BER      0.213000
     29 H71        -0.4030    0.8260    3.1570 h1        1 BER      0.095700
     30 H72         0.5790    1.9600    2.1000 h1        1 BER      0.095700
     31 H91         4.2120   -0.2430    2.3060 ha        1 BER      0.176000
     32 H101        1.2070   -1.0100    2.8220 hc        1 BER      0.092700
     33 H102        2.1020    0.4920    3.3000 hc        1 BER      0.092700
     34 H131       -2.2040   -1.1350   -3.2050 ha        1 BER      0.167000
     35 H161       -4.6700   -0.9390   -3.1830 ha        1 BER      0.169000
     36 H171        6.5980    0.4730   -1.7680 h2        1 BER      0.094700
     37 H172        6.4350   -1.4050   -1.7710 h2        1 BER      0.094700
     38 H191       -6.4770    0.0120    1.1890 h1        1 BER      0.068367
     39 H192       -6.0500    1.4300    2.2920 h1        1 BER      0.068367
     40 H193       -6.3310    1.7080    0.4890 h1        1 BER      0.068367
     41 H201       -6.5980    0.2280   -3.1510 h1        1 BER      0.062033
     42 H202       -6.7320   -1.4740   -2.4590 h1        1 BER      0.062033
     43 H203       -7.9420   -0.1790   -1.9620 h1        1 BER      0.062033
@<TRIPOS>BOND
     1    1    2 1   
     2    1    3 1   
     3    1    4 ar  
     4    2    5 ar  
     5    2    6 ar  
     6    3    7 2   
     7    3    8 1   
     8    4    9 ar  
     9    4   26 1   
    10    5   10 ar  
    11    5   11 1   
    12    6   12 ar  
    13    6   27 1   
    14    7   13 ar  
    15    7   28 1   
    16    8   11 1   
    17    8   29 1   
    18    8   30 1   
    19    9   13 ar  
    20    9   14 ar  
    21   10   15 ar  
    22   10   31 1   
    23   11   32 1   
    24   11   33 1   
    25   12   15 ar  
    26   12   16 1   
    27   13   17 ar  
    28   14   18 ar  
    29   14   34 1   
    30   15   19 1   
    31   16   20 1   
    32   17   21 ar  
    33   17   22 1   
    34   18   21 ar  
    35   18   35 1   
    36   19   20 1   
    37   20   36 1   
    38   20   37 1   
    39   21   23 1   
    40   22   24 1   
    41   23   25 1   
    42   24   38 1   
    43   24   39 1   
    44   24   40 1   
    45   25   41 1   
    46   25   42 1   
    47   25   43 1   
@<TRIPOS>SUBSTRUCTURE
     1 BER         1 TEMP              0 ****  ****    0 ROOT
