@<TRIPOS>MOLECULE
molecule
   46    46     1     0     0
SMALL
bcc


@<TRIPOS>ATOM
      1 N2           0.0000     0.0000     0.0000 nz         1 BES      -0.794600
      2 C1           1.4690     0.0000     0.0000 c3         1 BES       0.123500
      3 C6           1.9770     0.0000     1.4430 c3         1 BES      -0.058100
      4 C7           1.4750    -1.2300     2.1540 ca         1 BES      -0.140300
      5 C8           2.2210    -2.3920     2.1340 ca         1 BES      -0.130500
      6 C12          0.2700    -1.1930     2.8290 ca         1 BES      -0.130500
      7 C9           1.7600    -3.5210     2.7860 ca         1 BES      -0.110000
      8 C11         -0.1930    -2.3220     3.4770 ca         1 BES      -0.110000
      9 C10          0.5520    -3.4850     3.4580 ca         1 BES      -0.107000
     10 C2           1.9790     1.2480    -0.7220 c3         1 BES       0.037100
     11 O2           1.5040     2.4160    -0.0480 oh         1 BES      -0.596800
     12 C3           1.4770     1.2470    -2.1420 c          1 BES       0.586100
     13 O3           0.7820     2.1570    -2.5380 o          1 BES      -0.570100
     14 N1           1.8020     0.2370    -2.9710 ns         1 BES      -0.521900
     15 C4           1.3160     0.2370    -4.3520 c3         1 BES      -0.003300
     16 C13          2.3230    -0.4860    -5.2490 c3         1 BES      -0.075400
     17 C14          3.6710     0.2360    -5.1840 c3         1 BES      -0.082700
     18 C15          4.6780    -0.4860    -6.0810 c3         1 BES      -0.088600
     19 C16          3.5010     1.6770    -5.6660 c3         1 BES      -0.088600
     20 C5          -0.0130    -0.4730    -4.4160 c          1 BES       0.882600
     21 O1          -0.2880    -1.4600    -3.5490 o          1 BES      -0.835300
     22 O4          -0.8290    -0.1530    -5.2470 o          1 BES      -0.835300
     23 HN21        -0.3340     0.3430    -0.8790 hn         1 BES       0.465467
     24 HN22        -0.3340     0.5900     0.7360 hn         1 BES       0.465467
     25 H1           1.8290    -0.8850    -0.5100 hx         1 BES       0.126700
     26 H61          1.6160     0.8850     1.9530 hc         1 BES       0.084200
     27 H62          3.0610     0.0000     1.4440 hc         1 BES       0.084200
     28 H8           3.1680    -2.4200     1.6080 ha         1 BES       0.129500
     29 H12         -0.3140    -0.2810     2.8440 ha         1 BES       0.129500
     30 H9           2.3440    -4.4330     2.7710 ha         1 BES       0.145500
     31 H11         -1.1390    -2.2940     4.0050 ha         1 BES       0.145500
     32 H10          0.1890    -4.3700     3.9670 ha         1 BES       0.147000
     33 H2           3.0620     1.2470    -0.7220 h1         1 BES       0.080700
     34 HO2          2.1860     3.0660    -0.0270 ho         1 BES       0.437000
     35 HN           2.3660    -0.5210    -2.6400 hn         1 BES       0.302500
     36 H4           1.1960     1.2590    -4.6930 h1         1 BES       0.087700
     37 H131         1.9620    -0.4860    -6.2700 hc         1 BES       0.063200
     38 H132         2.4420    -1.5070    -4.9070 hc         1 BES       0.063200
     39 H14          4.0320     0.2360    -4.1630 hc         1 BES       0.025700
     40 H151         5.6480    -0.0130    -5.9880 hc         1 BES       0.033533
     41 H152         4.3470    -0.4330    -7.1110 hc         1 BES       0.033533
     42 H153         4.7520    -1.5240    -5.7790 hc         1 BES       0.033533
     43 H161         2.7280     1.7150    -6.4240 hc         1 BES       0.033533
     44 H162         3.2180     2.3060    -4.8310 hc         1 BES       0.033533
     45 H163         4.4350     2.0310    -6.0840 hc         1 BES       0.033533
     46 H23         -0.3340    -0.9330     0.1400 hn         1 BES       0.465467
@<TRIPOS>BOND
     1     1     2 1
     2     1    23 1
     3     1    24 1
     4     2     3 1
     5     2    10 1
     6     2    25 1
     7     3     4 1
     8     3    26 1
     9     3    27 1
    10     4     5 ar
    11     4     6 ar
    12     5     7 ar
    13     5    28 1
    14     6     8 ar
    15     6    29 1
    16     7     9 ar
    17     7    30 1
    18     8     9 ar
    19     8    31 1
    20     9    32 1
    21    10    11 1
    22    10    12 1
    23    10    33 1
    24    11    34 1
    25    12    13 2
    26    12    14 1
    27    14    15 1
    28    14    35 1
    29    15    16 1
    30    15    20 1
    31    15    36 1
    32    16    17 1
    33    16    37 1
    34    16    38 1
    35    17    18 1
    36    17    19 1
    37    17    39 1
    38    18    40 1
    39    18    41 1
    40    18    42 1
    41    19    43 1
    42    19    44 1
    43    19    45 1
    44    20    21 1
    45    20    22 1
    46    46     1 1
@<TRIPOS>SUBSTRUCTURE
     1 BES         1 TEMP              0 ****  ****    0 ROOT
