@<TRIPOS>MOLECULE
molecule
   19    18     1     0     0
SMALL
bcc


@<TRIPOS>ATOM
      1 N            0.0000     0.0000     0.0000 n4         1 BET      -0.549800
      2 CA           1.4690     0.0000     0.0000 c3         1 BET      -0.016200
      3 C            1.9720     0.0000     1.4200 c          1 BET       0.874600
      4 O1           1.1910     0.1060     2.3380 o          1 BET      -0.788300
      5 O2           3.2860    -0.1170     1.6680 o          1 BET      -0.788300
      6 C1          -0.4900     1.2290     0.6380 c3         1 BET       0.096767
      7 C2          -0.4900    -1.1670     0.7460 c3         1 BET       0.096767
      8 C3          -0.4900    -0.0620    -1.3830 c3         1 BET       0.096767
      9 HA1          1.8300     0.8840    -0.5110 hx         1 BET       0.087700
     10 HA2          1.8300    -0.8840    -0.5110 hx         1 BET       0.087700
     11 H11         -1.4970     1.4370     0.2960 hx         1 BET       0.089033
     12 H12         -0.4930     1.1010     1.7140 hx         1 BET       0.089033
     13 H13          0.1590     2.0560     0.3740 hx         1 BET       0.089033
     14 H21         -0.5420    -0.9250     1.8000 hx         1 BET       0.089033
     15 H22          0.1870    -1.9990     0.5990 hx         1 BET       0.089033
     16 H23         -1.4760    -1.4360     0.3880 hx         1 BET       0.089033
     17 H31         -1.5720    -0.0200    -1.3860 hx         1 BET       0.089033
     18 H32         -0.1630    -0.9890    -1.8410 hx         1 BET       0.089033
     19 H33         -0.0950     0.7760    -1.9440 hx         1 BET       0.089033
@<TRIPOS>BOND
     1     1     2 1
     2     1     6 1
     3     1     7 1
     4     1     8 1
     5     2     3 1
     6     2     9 1
     7     2    10 1
     8     3     4 1
     9     3     5 1
    10     6    11 1
    11     6    12 1
    12     6    13 1
    13     7    14 1
    14     7    15 1
    15     7    16 1
    16     8    17 1
    17     8    18 1
    18     8    19 1
@<TRIPOS>SUBSTRUCTURE
     1 BET         1 TEMP              0 ****  ****    0 ROOT
