@<TRIPOS>MOLECULE
molecule
   32    32     1     0     0
SMALL
bcc


@<TRIPOS>ATOM
      1 C'           0.0000     0.0000     0.0000 c3         1 BEU       0.170600
      2 O1'          1.4290     0.0000     0.0000 oh         1 BEU      -0.626800
      3 C1          -0.5030     0.0000     1.4200 c2         1 BEU      -0.032400
      4 C2           0.3720    -0.0000     2.3740 c2         1 BEU      -0.255200
      5 C3           0.0240    -0.0110     3.8340 c3         1 BEU       0.140700
      6 N3           0.8970     0.9290     4.5490 nz         1 BEU      -0.800600
      7 C4          -1.4360     0.4030     4.0300 c3         1 BEU       0.088700
      8 N4          -1.8400     0.1430     5.4150 ns         1 BEU      -0.588900
      9 C4'         -1.5880     1.0570     6.3730 c          1 BEU       0.663100
     10 O4'         -1.0280     2.0950     6.0890 o          1 BEU      -0.650100
     11 CM4         -2.0030     0.7900     7.7960 c3         1 BEU      -0.169100
     12 C5          -2.3070    -0.4220     3.0760 c3         1 BEU       0.134100
     13 O5          -3.6880    -0.1780     3.3520 oh         1 BEU      -0.584800
     14 C6          -1.9870     0.0060     1.6410 c3         1 BEU       0.157300
     15 O4          -2.6060    -0.9040     0.7280 oh         1 BEU      -0.586800
     16 H'C1        -0.3610     0.8850    -0.5110 h1         1 BEU       0.064200
     17 H'C2        -0.3610    -0.8840    -0.5110 h1         1 BEU       0.064200
     18 H1'          1.7430     0.0110    -0.8890 ho         1 BEU       0.433000
     19 H2           1.4200     0.0060     2.1020 ha         1 BEU       0.180000
     20 H6          -2.3700     1.0060     1.4730 h1         1 BEU       0.079700
     21 H3           0.1670    -1.0100     4.2270 hx         1 BEU       0.115700
     22 H3N1         1.8460     0.7840     4.2660 hn         1 BEU       0.460133
     23 H3N2         0.8170     0.7760     5.5350 hn         1 BEU       0.460133
     24 H4          -1.5480     1.4560     3.8040 h1         1 BEU       0.107700
     25 HA          -2.3370    -0.6960     5.6420 hn         1 BEU       0.343500
     26 H5          -2.0860    -1.4750     3.1990 h1         1 BEU       0.066700
     27 HM41        -1.5980     1.5600     8.4410 hc         1 BEU       0.081033
     28 HM42        -3.0840     0.7940     7.8640 hc         1 BEU       0.081033
     29 HM43        -1.6260    -0.1770     8.1070 hc         1 BEU       0.081033
     30 HB          -4.1650    -0.9900     3.3140 ho         1 BEU       0.432000
     31 HC          -3.3280    -0.4760     0.2980 ho         1 BEU       0.430000
     32 H33          0.6180     1.8680     4.3420 hn         1 BEU       0.460133
@<TRIPOS>BOND
     1     1     2 1
     2     1     3 1
     3     1    16 1
     4     1    17 1
     5     2    18 1
     6     3     4 2
     7     3    14 1
     8     4     5 1
     9     4    19 1
    10     5     6 1
    11     5     7 1
    12     5    21 1
    13     6    22 1
    14     6    23 1
    15     7     8 1
    16     7    12 1
    17     7    24 1
    18     8     9 1
    19     8    25 1
    20     9    10 2
    21     9    11 1
    22    11    27 1
    23    11    28 1
    24    11    29 1
    25    12    13 1
    26    12    14 1
    27    12    26 1
    28    13    30 1
    29    14    15 1
    30    14    20 1
    31    15    31 1
    32    32     6 1
@<TRIPOS>SUBSTRUCTURE
     1 BEU         1 TEMP              0 ****  ****    0 ROOT
