@<TRIPOS>MOLECULE
BEV
   18    18     1     0     0
SMALL
bcc


@<TRIPOS>ATOM
      1 N1           0.0000     0.0000     0.0000 nz         1 BEV      -0.095500
      2 C6           3.4170     1.7160    -0.7470 c2         1 BEV       0.690100
      3 C8           5.3770     2.9960    -1.3030 c3         1 BEV       0.128800
      4 S2           1.6560     0.0000     0.0000 sy         1 BEV       1.073300
      5 O3           2.0580     0.0000     1.3630 o          1 BEV      -0.513800
      6 O4           2.0570    -0.9980    -0.9280 o          1 BEV      -0.513800
      7 N5           2.1470     1.4510    -0.6310 ne         1 BEV      -0.764300
      8 N7           3.9390     2.8670    -1.2480 nu         1 BEV      -0.355200
      9 C9           6.0870     1.7510    -0.7580 c3         1 BEV       0.096700
     10 S10          4.7330     0.6380    -0.2690 ss         1 BEV      -0.263300
     11 HN1         -0.3340     0.1060    -0.9380 hn         1 BEV       0.311467
     12 HN1A        -0.3340    -0.8650     0.3770 hn         1 BEV       0.311467
     13 H8           5.6750     3.8550    -0.7150 h1         1 BEV       0.052700
     14 H8A          5.6760     3.1470    -2.3340 h1         1 BEV       0.052700
     15 HN7          3.3440     3.6040    -1.5710 hn         1 BEV       0.320800
     16 H9           6.6920     2.0090     0.1030 h1         1 BEV       0.077700
     17 H9A          6.6910     1.2920    -1.5310 h1         1 BEV       0.077700
     18 H13         -0.3340     0.7820     0.5280 hn         1 BEV       0.311467
@<TRIPOS>BOND
     1     1     4 1   
     2     1    11 1   
     3     1    12 1   
     4     1    18 1   
     5     2     7 2   
     6     2     8 1   
     7     2    10 1   
     8     3     8 1   
     9     3     9 1   
    10     3    13 1   
    11     3    14 1   
    12     4     5 2   
    13     4     6 2   
    14     4     7 1   
    15     8    15 1   
    16     9    10 1   
    17     9    16 1   
    18     9    17 1   
@<TRIPOS>SUBSTRUCTURE
     1 BEV         1 TEMP              0 ****  ****    0 ROOT
