@<TRIPOS>MOLECULE
molecule
   18    18     1     0     0
SMALL
bcc


@<TRIPOS>ATOM
      1 N1           0.0000     0.0000     0.0000 nz         1 BEV      -0.795500
      2 C6           3.4170     1.7160    -0.7470 c2         1 BEV       0.838100
      3 C8           5.3770     2.9960    -1.3030 c3         1 BEV       0.202800
      4 S2           1.6560     0.0000     0.0000 sy         1 BEV       1.404300
      5 O3           2.0580     0.0000     1.3630 o          1 BEV      -0.546300
      6 O4           2.0570    -0.9980    -0.9280 o          1 BEV      -0.546300
      7 N5           2.1470     1.4510    -0.6310 ne         1 BEV      -0.899300
      8 N7           3.9390     2.8670    -1.2480 nu         1 BEV      -0.810200
      9 C9           6.0870     1.7510    -0.7580 c3         1 BEV       0.004700
     10 S10          4.7330     0.6380    -0.2690 ss         1 BEV      -0.220300
     11 HN1         -0.3340    -0.8650     0.3770 hn         1 BEV       0.494467
     12 HN1A        -0.3340     0.1060    -0.9380 hn         1 BEV       0.494467
     13 H8           5.6760     3.1470    -2.3340 h1         1 BEV       0.087700
     14 H8A          5.6750     3.8550    -0.7150 h1         1 BEV       0.087700
     15 HN7          3.3440     3.6040    -1.5710 hn         1 BEV       0.484800
     16 H9           6.6910     1.2920    -1.5310 h1         1 BEV       0.112700
     17 H9A          6.6920     2.0090     0.1030 h1         1 BEV       0.112700
     18 H13         -0.3340     0.7340     0.5930 hn         1 BEV       0.494467
@<TRIPOS>BOND
     1     1     4 1
     2     2     7 2
     3     2     8 1
     4     2    10 1
     5     3     8 1
     6     3     9 1
     7     4     5 2
     8     4     6 2
     9     4     7 1
    10     9    10 1
    11     1    11 1
    12     1    12 1
    13     3    13 1
    14     3    14 1
    15     8    15 1
    16     9    16 1
    17     9    17 1
    18    18     1 1
@<TRIPOS>SUBSTRUCTURE
     1 BEV         1 TEMP              0 ****  ****    0 ROOT
