@<TRIPOS>MOLECULE
molecule
   14    14     1     0     0
SMALL
bcc


@<TRIPOS>ATOM
      1 C4           0.0000     0.0000     0.0000 ca         1 BEW      -0.119000
      2 C5           1.3880     0.0000     0.0000 ca         1 BEW      -0.016000
      3 C6           2.0480     0.0000     1.2160 ca         1 BEW      -0.103000
      4 N2          -0.0210    -0.0000     2.3490 na         1 BEW       0.175800
      5 O8          -0.7500    -0.0000     3.5630 oh         1 BEW      -0.347200
      6 C3          -0.6770    -0.0000     1.2040 ca         1 BEW      -0.034300
      7 C1           1.3040    -0.0000     2.3900 ca         1 BEW       0.101600
      8 S7           2.1290    -0.0010     3.9470 sh         1 BEW      -0.205700
      9 H4          -0.5470     0.0000    -0.9350 ha         1 BEW       0.206000
     10 H5           1.9420     0.0000    -0.9310 ha         1 BEW       0.197000
     11 H6           3.1310    -0.0000     1.2530 ha         1 BEW       0.209000
     12 HO8         -1.0700     0.8700     3.7380 ho         1 BEW       0.458000
     13 H3          -1.7600    -0.0000     1.2090 h4         1 BEW       0.219000
     14 HS7          2.7290    -1.1710     4.1300 hs         1 BEW       0.257800
@<TRIPOS>BOND
     1     1     2 ar
     2     1     6 ar
     3     2     3 ar
     4     3     7 ar
     5     4     5 1
     6     4     6 1
     7     4     7 2
     8     7     8 1
     9     1     9 1
    10     2    10 1
    11     3    11 1
    12     5    12 1
    13     6    13 1
    14     8    14 1
@<TRIPOS>SUBSTRUCTURE
     1 BEW         1 TEMP              0 ****  ****    0 ROOT
