@<TRIPOS>MOLECULE
BEW
   14    14     1     0     0
SMALL
bcc


@<TRIPOS>ATOM
      1 C4          0.0170    0.0430   -0.0240 ca        1 BEW     -0.151000
      2 C5          1.4140   -0.0970    0.0720 ca        1 BEW      0.016000
      3 C6          2.0070   -0.1940    1.3220 ca        1 BEW     -0.186000
      4 N2         -0.1390    0.0280    2.3780 na        1 BEW      0.099800
      5 O8         -0.9290   -0.0880    3.4360 oh        1 BEW     -0.372200
      6 C3         -0.7460    0.0840    1.1330 ca        1 BEW      0.004700
      7 C1          1.2320   -0.1520    2.5110 ca        1 BEW      0.085600
      8 S7          1.9140   -0.2880    4.0450 sh        1 BEW     -0.009700
      9 H4         -0.4830    0.1130   -1.0060 ha        1 BEW      0.207000
     10 H5          2.0300   -0.1380   -0.8460 ha        1 BEW      0.196000
     11 H6          3.1000   -0.3210    1.4070 ha        1 BEW      0.192000
     12 HO8        -0.9450    0.7860    3.8960 ho        1 BEW      0.464000
     13 H3         -1.8540    0.1680    1.1400 h4        1 BEW      0.225000
     14 HS7         3.2000   -0.2620    3.7000 hs        1 BEW      0.227800
@<TRIPOS>BOND
     1    1    2 ar  
     2    1    6 ar  
     3    1    9 1   
     4    2    3 ar  
     5    2   10 1   
     6    3    7 ar  
     7    3   11 1   
     8    4    5 1   
     9    4    6 1   
    10    4    7 2   
    11    5   12 1   
    12    6   13 1   
    13    7    8 1   
    14    8   14 1   
@<TRIPOS>SUBSTRUCTURE
     1 BEW         1 TEMP              0 ****  ****    0 ROOT
