@<TRIPOS>MOLECULE
BEX
   44    45     1     0     0
SMALL
bcc


@<TRIPOS>ATOM
      1 C4           0.0000     0.0000     0.0000 ca         1 BEX      -0.008400
      2 C5           1.3890     0.0000     0.0000 ca         1 BEX      -0.247000
      3 C6           2.0800     0.0000     1.2000 ca         1 BEX       0.172100
      4 C8           1.2790     0.0030     4.7810 c3         1 BEX       0.242700
      5 C10          4.0900    -0.0020    -0.0710 c3         1 BEX       0.246700
      6 C20         -3.1340     2.0840    -4.0630 ca         1 BEX      -0.163500
      7 C21         -3.0840     3.4200    -4.4090 ca         1 BEX      -0.048000
      8 C22         -2.4960     4.3360    -3.5560 ca         1 BEX      -0.110000
      9 C24         -2.0050     2.5830    -2.0020 ca         1 BEX      -0.163500
     10 C1           1.3820     0.0010     2.4030 ca         1 BEX       0.120100
     11 O9           3.4400    -0.0010     1.2020 os         1 BEX      -0.274900
     12 N11         -0.7000    -0.0000    -1.2120 nu         1 BEX      -0.521600
     13 C12         -2.1650    -0.0000    -1.2100 c3         1 BEX       0.542500
     14 N13         -2.6540    -1.3330    -0.8520 n7         1 BEX      -0.605100
     15 S14         -2.3730    -2.6170    -1.8600 s6         1 BEX       1.038800
     16 O15         -2.9400    -3.7560    -1.2270 o          1 BEX      -0.484300
     17 O16         -2.7410    -2.1900    -3.1650 o          1 BEX      -0.484300
     18 N17         -0.7370    -2.8660    -1.8940 nz         1 BEX      -0.157500
     19 O18         -2.6420     0.3470    -2.5120 os         1 BEX      -0.305900
     20 C19         -2.5930     1.6610    -2.8560 ca         1 BEX       0.106100
     21 C23         -1.9560     3.9170    -2.3540 ca         1 BEX      -0.048000
     22 C3          -0.6940    -0.0040     1.2030 ca         1 BEX      -0.167000
     23 C2          -0.0040     0.0020     2.4000 ca         1 BEX      -0.132000
     24 H5           1.9310    -0.0010    -0.9380 ha         1 BEX       0.129000
     25 H8           0.6540     0.8880     4.8030 h1         1 BEX       0.003700
     26 H8A          1.9310    -0.0010     5.6450 h1         1 BEX       0.003700
     27 H8B          0.6530    -0.8810     4.7960 h1         1 BEX       0.003700
     28 H10          3.7910     0.8750    -0.6300 h1         1 BEX       0.000033
     29 H10A         3.8100    -0.8930    -0.6190 h1         1 BEX       0.000033
     30 H10B         5.1640     0.0100     0.0730 h1         1 BEX       0.000033
     31 H20         -3.5940     1.3670    -4.7310 ha         1 BEX       0.119500
     32 H21         -3.5060     3.7510    -5.3510 ha         1 BEX       0.114500
     33 H22         -2.4580     5.3840    -3.8300 ha         1 BEX       0.118000
     34 H24         -1.5820     2.2550    -1.0600 ha         1 BEX       0.119500
     35 HN11        -0.2000     0.0510    -2.0780 hn         1 BEX       0.307800
     36 H12         -2.5260     0.7220    -0.4880 h3         1 BEX       0.071700
     37 HN13        -3.2080    -1.0460    -0.0700 hn         1 BEX       0.421800
     38 HN17        -0.5460    -3.7810    -2.2530 hn         1 BEX       0.320800
     39 HN1A        -0.3690    -2.7890    -0.9660 hn         1 BEX       0.320800
     40 H23         -1.4970     4.6360    -1.6870 ha         1 BEX       0.114500
     41 H3          -1.7770    -0.0040     1.2030 ha         1 BEX       0.107000
     42 H2          -0.5470     0.0010     3.3380 ha         1 BEX       0.136000
     43 O7           2.0590     0.0020     3.5830 os         1 BEX      -0.280900
     44 H173        -0.3060    -2.1730    -2.4730 hn         1 BEX       0.320800
@<TRIPOS>BOND
     1     1     2 ar  
     2     1    12 1   
     3     1    22 ar  
     4     2     3 ar  
     5     2    24 1   
     6     3    10 ar  
     7     3    11 1   
     8     4    25 1   
     9     4    26 1   
    10     4    27 1   
    11     4    43 1   
    12     5    11 1   
    13     5    28 1   
    14     5    29 1   
    15     5    30 1   
    16     6     7 ar  
    17     6    20 ar  
    18     6    31 1   
    19     7     8 ar  
    20     7    32 1   
    21     8    21 ar  
    22     8    33 1   
    23     9    20 ar  
    24     9    21 ar  
    25     9    34 1   
    26    10    23 ar  
    27    10    43 1   
    28    12    13 1   
    29    12    35 1   
    30    13    14 1   
    31    13    19 1   
    32    13    36 1   
    33    14    15 1   
    34    14    37 1   
    35    15    16 2   
    36    15    17 2   
    37    15    18 1   
    38    18    38 1   
    39    18    39 1   
    40    18    44 1   
    41    19    20 1   
    42    21    40 1   
    43    22    23 ar  
    44    22    41 1   
    45    23    42 1   
@<TRIPOS>SUBSTRUCTURE
     1 BEX         1 TEMP              0 ****  ****    0 ROOT
