@<TRIPOS>MOLECULE
BEY
   48    49     1     0     0
SMALL
bcc


@<TRIPOS>ATOM
      1 O3           0.0000     0.0000     0.0000 o          1 BEY      -0.536500
      2 P            1.6100     0.0000     0.0000 p5         1 BEY       0.292400
      3 O4           2.1030     1.2090    -0.6970 o          1 BEY      -0.536500
      4 C19          2.2180     0.0000     1.7200 c3         1 BEY      -0.139700
      5 C18          1.7070     1.2480     2.4410 c3         1 BEY       0.032600
      6 C15          2.2170     2.4980     1.7200 c3         1 BEY      -0.033100
      7 C16          1.7140     3.7280     2.4310 ca         1 BEY      -0.047300
      8 C10          2.4610     4.2930     3.4480 ca         1 BEY      -0.097500
      9 C11          1.9990     5.4210     4.1000 ca         1 BEY      -0.121500
     10 C12          0.7920     5.9860     3.7340 ca         1 BEY      -0.123000
     11 C14          0.0450     5.4220     2.7170 ca         1 BEY      -0.121500
     12 C13          0.5100     4.2950     2.0620 ca         1 BEY      -0.097500
     13 N            1.7280    -1.2000     2.4110 nz         1 BEY       0.120400
     14 C17          2.2190    -1.4880    -0.8590 c3         1 BEY      -0.002600
     15 C8           1.8140    -1.4260    -2.3340 c3         1 BEY      -0.115700
     16 C9           0.3440    -1.7320    -2.4640 c          1 BEY       0.978600
     17 O2          -0.2360    -1.7350    -3.6750 o          1 BEY      -0.885300
     18 O1          -0.3130    -1.9740    -1.4800 o          1 BEY      -0.885300
     19 C7           2.6220    -2.4550    -3.1280 c3         1 BEY       0.050900
     20 C1           2.3130    -2.3110    -4.5960 ca         1 BEY      -0.050300
     21 C2           3.0670    -1.4570    -5.3800 ca         1 BEY      -0.051500
     22 C3           2.7840    -1.3260    -6.7260 ca         1 BEY      -0.131000
     23 C4           1.7490    -2.0470    -7.2890 ca         1 BEY      -0.127000
     24 C6           0.9960    -2.9020    -6.5060 ca         1 BEY      -0.131000
     25 C5           1.2810    -3.0370    -5.1600 ca         1 BEY      -0.051500
     26 H19          3.3010     0.0000     1.7200 hx         1 BEY       0.069700
     27 H18          0.6240     1.2480     2.4410 hc         1 BEY       0.005700
     28 H18A         2.0680     1.2480     3.4630 hc         1 BEY       0.005700
     29 H15          3.3000     2.4980     1.7200 hc         1 BEY       0.077200
     30 H15A         1.8550     2.4980     0.6990 hc         1 BEY       0.077200
     31 H10          3.4240     3.8720     3.7110 ha         1 BEY       0.114500
     32 H11          2.5840     5.8620     4.8980 ha         1 BEY       0.095000
     33 H12          0.4210     6.8580     4.2590 ha         1 BEY       0.091000
     34 H14         -0.9120     5.8500     2.4460 ha         1 BEY       0.095000
     35 H13         -0.1970     4.1380     1.2560 ha         1 BEY       0.114500
     36 HN           0.7380    -1.2770     2.2850 hn         1 BEY       0.194800
     37 HNA          2.1770    -2.0100     2.0320 hn         1 BEY       0.194800
     38 H17          1.7870    -2.3710    -0.4030 hc         1 BEY      -0.002300
     39 H17A         3.2980    -1.5330    -0.7820 hc         1 BEY      -0.002300
     40 H8           2.0130    -0.4340    -2.7210 hc         1 BEY       0.057700
     41 H7           3.6800    -2.2890    -2.9640 hc         1 BEY      -0.011800
     42 H7A          2.3580    -3.4530    -2.7990 hc         1 BEY      -0.011800
     43 H2           3.8790    -0.8920    -4.9390 ha         1 BEY       0.106000
     44 H3           3.3740    -0.6570    -7.3410 ha         1 BEY       0.081500
     45 H4           1.5260    -1.9430    -8.3440 ha         1 BEY       0.076000
     46 H6           0.1850    -3.4690    -6.9470 ha         1 BEY       0.081500
     47 H5           0.6910    -3.7070    -4.5460 ha         1 BEY       0.106000
     48 HN3          1.9400    -1.1320     3.3870 hn         1 BEY       0.194800
@<TRIPOS>BOND
     1     1     2 1   
     2     2     3 1   
     3     2     4 1   
     4     2    14 1   
     5     4     5 1   
     6     4    13 1   
     7     4    26 1   
     8     5     6 1   
     9     5    27 1   
    10     5    28 1   
    11     6     7 1   
    12     6    29 1   
    13     6    30 1   
    14     7     8 ar  
    15     7    12 ar  
    16     8     9 ar  
    17     8    31 1   
    18     9    10 ar  
    19     9    32 1   
    20    10    11 ar  
    21    10    33 1   
    22    11    12 ar  
    23    11    34 1   
    24    12    35 1   
    25    13    36 1   
    26    13    37 1   
    27    13    48 1   
    28    14    15 1   
    29    14    38 1   
    30    14    39 1   
    31    15    16 1   
    32    15    19 1   
    33    15    40 1   
    34    16    17 1   
    35    16    18 1   
    36    19    20 1   
    37    19    41 1   
    38    19    42 1   
    39    20    21 ar  
    40    20    25 ar  
    41    21    22 ar  
    42    21    43 1   
    43    22    23 ar  
    44    22    44 1   
    45    23    24 ar  
    46    23    45 1   
    47    24    25 ar  
    48    24    46 1   
    49    25    47 1   
@<TRIPOS>SUBSTRUCTURE
     1 BEY         1 TEMP              0 ****  ****    0 ROOT
