@<TRIPOS>MOLECULE
BEZ
   14    14     1     0     0
SMALL
bcc


@<TRIPOS>ATOM
      1 C           0.0110   -0.0090    0.0520 c         1 BEZ      0.906200
      2 O1          1.2740   -0.0070    0.0120 o         1 BEZ     -0.834300
      3 O2         -0.6620   -0.0190    1.1220 o         1 BEZ     -0.834300
      4 C1         -0.7460   -0.0000   -1.2670 ca        1 BEZ     -0.123600
      5 C2         -0.0520    0.0130   -2.4810 ca        1 BEZ     -0.109000
      6 C3         -0.7440    0.0210   -3.6910 ca        1 BEZ     -0.166000
      7 C4         -2.1390    0.0170   -3.6980 ca        1 BEZ     -0.162000
      8 C5         -2.8380    0.0040   -2.4910 ca        1 BEZ     -0.166000
      9 C6         -2.1440   -0.0050   -1.2820 ca        1 BEZ     -0.109000
     10 H2          1.0500    0.0160   -2.4520 ha        1 BEZ      0.148000
     11 H3         -0.1930    0.0320   -4.6410 ha        1 BEZ      0.101000
     12 H4         -2.6860    0.0230   -4.6510 ha        1 BEZ      0.097000
     13 H5         -3.9370   -0.0000   -2.4950 ha        1 BEZ      0.101000
     14 H6         -2.6750   -0.0150   -0.3170 ha        1 BEZ      0.148000
@<TRIPOS>BOND
     1    1    2 1   
     2    1    3 1   
     3    1    4 1   
     4    4    5 ar  
     5    4    9 ar  
     6    5    6 ar  
     7    5   10 1   
     8    6    7 ar  
     9    6   11 1   
    10    7    8 ar  
    11    7   12 1   
    12    8    9 ar  
    13    8   13 1   
    14    9   14 1   
@<TRIPOS>SUBSTRUCTURE
     1 BEZ         1 TEMP              0 ****  ****    0 ROOT
