@<TRIPOS>MOLECULE
molecule
   14    14     1     0     0
SMALL
bcc


@<TRIPOS>ATOM
      1 C            0.0000     0.0000     0.0000 c          1 BEZ       0.883200
      2 O1           1.2140     0.0000     0.0000 o          1 BEZ      -0.840300
      3 O2          -0.6730     0.0000     1.1670 o          1 BEZ      -0.840300
      4 C1          -0.7390     0.0060    -1.2780 ca         1 BEZ      -0.103600
      5 C2          -0.0460     0.0120    -2.4900 ca         1 BEZ      -0.101500
      6 C3          -0.7420     0.0180    -3.6800 ca         1 BEZ      -0.165000
      7 C4          -2.1250     0.0190    -3.6760 ca         1 BEZ      -0.158000
      8 C5          -2.8200     0.0140    -2.4790 ca         1 BEZ      -0.165000
      9 C6          -2.1360     0.0000    -1.2820 ca         1 BEZ      -0.101500
     10 H2           1.0380     0.0110    -2.4950 ha         1 BEZ       0.146500
     11 H3          -0.2050     0.0220    -4.6210 ha         1 BEZ       0.100500
     12 H4          -2.6670     0.0260    -4.6140 ha         1 BEZ       0.096000
     13 H5          -3.9030     0.0120    -2.4830 ha         1 BEZ       0.100500
     14 H6          -2.6800    -0.0040    -0.3450 ha         1 BEZ       0.146500
@<TRIPOS>BOND
     1     1     2 1
     2     1     3 1
     3     1     4 1
     4     4     5 ar
     5     4     9 ar
     6     5     6 ar
     7     5    10 1
     8     6     7 ar
     9     6    11 1
    10     7     8 ar
    11     7    12 1
    12     8     9 ar
    13     8    13 1
    14     9    14 1
@<TRIPOS>SUBSTRUCTURE
     1 BEZ         1 TEMP              0 ****  ****    0 ROOT
