@<TRIPOS>MOLECULE
BF0
   65    70     1     0     0
SMALL
bcc


@<TRIPOS>ATOM
      1 CBF          0.0000     0.0000     0.0000 cx         1 BF0      -0.083400
      2 CBG          1.5300     0.0000     0.0000 cx         1 BF0      -0.083400
      3 CBE          0.7640     0.0000     1.3260 cx         1 BF0      -0.113700
      4 CBD          0.7650     1.2940     2.1420 c3         1 BF0       0.183800
      5 NAJ          1.4430     1.0640     3.4240 n3         1 BF0      -0.524600
      6 CAK          2.8670     0.7790     3.2220 c3         1 BF0       0.135800
      7 CAL          3.5340     0.4350     4.5600 c3         1 BF0      -0.007400
      8 CAM          3.3170     1.6110     5.5140 c3         1 BF0      -0.016700
      9 CBC          3.8630     2.8670     4.8790 ca         1 BF0      -0.185300
     10 CAN          4.1880     1.5130     6.7540 c3         1 BF0       0.192100
     11 OAA          5.4410     2.1070     6.2830 os         1 BF0      -0.285900
     12 CAB          5.1420     3.0660     5.3800 ca         1 BF0       0.125100
     13 CAC          5.8680     4.1660     4.9090 ca         1 BF0       0.105100
     14 OAD          7.1400     4.4080     5.3270 oh         1 BF0      -0.480100
     15 CAE          5.2310     4.9990     3.9930 ca         1 BF0      -0.109000
     16 CAF          3.9280     4.8030     3.5660 ca         1 BF0      -0.115000
     17 CAG          3.1960     3.7250     4.0350 ca         1 BF0      -0.041300
     18 CAH          1.7530     3.4770     3.7330 c3         1 BF0       0.000900
     19 CAI          1.2260     2.1900     4.3440 c3         1 BF0       0.108500
     20 CAR          1.8280     1.8400     5.7030 c3         1 BF0       0.199800
     21 OAS          1.2250     0.6400     6.1930 oh         1 BF0      -0.574800
     22 CAQ          1.5940     2.9570     6.7150 c3         1 BF0      -0.059400
     23 CAP          2.2200     2.5270     8.0420 c3         1 BF0      -0.034400
     24 CAO          3.7180     2.3630     7.9170 c3         1 BF0      -0.009300
     25 NAT          4.2160     1.7610     9.1560 ns         1 BF0      -0.189900
     26 CAU          4.5060     2.5420    10.2160 c          1 BF0       0.573100
     27 OAV          4.3530     3.7430    10.1440 o          1 BF0      -0.653100
     28 CAW          5.0200     1.9230    11.4910 c3         1 BF0      -0.088400
     29 CAX          5.2660     3.0210    12.5270 c3         1 BF0      -0.055400
     30 CAY          5.7800     2.4020    13.8020 c          1 BF0       0.691100
     31 OAZ          5.9330     1.2050    13.8730 o          1 BF0      -0.599000
     32 OBA          6.0680     3.1790    14.8570 os         1 BF0      -0.413900
     33 CBB          6.5580     2.5150    16.0510 c3         1 BF0       0.269700
     34 H1          -0.4670    -0.9390    -0.2700 hc         1 BF0       0.044950
     35 H2          -0.4670     0.9390    -0.2700 hc         1 BF0       0.044950
     36 H3           1.9970    -0.9390    -0.2700 hc         1 BF0       0.044950
     37 H4           1.9970     0.9390    -0.2710 hc         1 BF0       0.044950
     38 H5           0.7640    -0.9490     1.8490 hc         1 BF0       0.071700
     39 H6           1.2850     2.0680     1.5910 h1         1 BF0       0.013700
     40 H7          -0.2570     1.6050     2.3240 h1         1 BF0       0.013700
     41 H9           2.9700    -0.0620     2.5470 h1         1 BF0       0.022200
     42 H10          3.3490     1.6500     2.7950 h1         1 BF0       0.022200
     43 H11          4.5950     0.2790     4.4090 hc         1 BF0       0.034200
     44 H12          3.0820    -0.4580     4.9740 hc         1 BF0       0.034200
     45 H13          4.3340     0.4820     7.0510 h1         1 BF0       0.054700
     46 H14          7.7490     4.0930     4.6790 ho         1 BF0       0.399000
     47 H15          5.7820     5.8420     3.5950 ha         1 BF0       0.110000
     48 H16          3.4860     5.4850     2.8510 ha         1 BF0       0.108000
     49 H17          1.6280     3.4260     2.6580 hc         1 BF0       0.035200
     50 H18          1.1720     4.3060     4.1180 hc         1 BF0       0.035200
     51 H19          0.1570     2.3050     4.4790 h1         1 BF0       0.032700
     52 H20          0.2870     0.7330     6.1850 ho         1 BF0       0.396000
     53 H21          0.5300     3.1120     6.8480 hc         1 BF0       0.032200
     54 H22          2.0630     3.8700     6.3680 hc         1 BF0       0.032200
     55 H23          2.0090     3.2800     8.7910 hc         1 BF0       0.033200
     56 H24          1.7860     1.5830     8.3480 hc         1 BF0       0.033200
     57 H25          4.1560     3.3480     7.8130 h1         1 BF0       0.078700
     58 H26          4.3650     0.7720     9.2080 hn         1 BF0       0.177500
     59 H27          5.9480     1.4010    11.2900 hc         1 BF0       0.041700
     60 H28          4.2870     1.2230    11.8730 hc         1 BF0       0.041700
     61 H29          5.9990     3.7210    12.1450 hc         1 BF0       0.051700
     62 H30          4.3390     3.5430    12.7280 hc         1 BF0       0.051700
     63 H31          7.4760     1.9870    15.8200 h1         1 BF0       0.000700
     64 H32          5.8150     1.8100    16.4040 h1         1 BF0       0.000700
     65 H33          6.7500     3.2520    16.8210 h1         1 BF0       0.000700
@<TRIPOS>BOND
     1     1     2 1   
     2     1     3 1   
     3     1    34 1   
     4     1    35 1   
     5     2     3 1   
     6     2    36 1   
     7     2    37 1   
     8     3     4 1   
     9     3    38 1   
    10     4     5 1   
    11     4    39 1   
    12     4    40 1   
    13     5     6 1   
    14     5    19 1   
    15     6     7 1   
    16     6    41 1   
    17     6    42 1   
    18     7     8 1   
    19     7    43 1   
    20     7    44 1   
    21     8     9 1   
    22     8    10 1   
    23     8    20 1   
    24     9    12 ar  
    25     9    17 ar  
    26    10    11 1   
    27    10    24 1   
    28    10    45 1   
    29    11    12 1   
    30    12    13 ar  
    31    13    14 1   
    32    13    15 ar  
    33    14    46 1   
    34    15    16 ar  
    35    15    47 1   
    36    16    17 ar  
    37    16    48 1   
    38    17    18 1   
    39    18    19 1   
    40    18    49 1   
    41    18    50 1   
    42    19    20 1   
    43    19    51 1   
    44    20    21 1   
    45    20    22 1   
    46    21    52 1   
    47    22    23 1   
    48    22    53 1   
    49    22    54 1   
    50    23    24 1   
    51    23    55 1   
    52    23    56 1   
    53    24    25 1   
    54    24    57 1   
    55    25    26 1   
    56    25    58 1   
    57    26    27 2   
    58    26    28 1   
    59    28    29 1   
    60    28    59 1   
    61    28    60 1   
    62    29    30 1   
    63    29    61 1   
    64    29    62 1   
    65    30    31 2   
    66    30    32 1   
    67    32    33 1   
    68    33    63 1   
    69    33    64 1   
    70    33    65 1   
@<TRIPOS>SUBSTRUCTURE
     1 BF0         1 TEMP              0 ****  ****    0 ROOT
