@<TRIPOS>MOLECULE
molecule
   65    70     1     0     0
SMALL
bcc


@<TRIPOS>ATOM
      1 CBF          0.0000     0.0000     0.0000 cx         1 BF0      -0.140400
      2 CBG          1.5300     0.0000     0.0000 cx         1 BF0      -0.140400
      3 CBE          0.7640     0.0000     1.3260 cx         1 BF0      -0.132700
      4 CBD          0.7650     1.2940     2.1420 c3         1 BF0       0.194800
      5 NAJ          1.4430     1.0640     3.4240 n3         1 BF0      -0.717600
      6 CAK          2.8670     0.7790     3.2220 c3         1 BF0       0.162800
      7 CAL          3.5340     0.4350     4.5600 c3         1 BF0      -0.057400
      8 CAM          3.3170     1.6110     5.5140 c3         1 BF0      -0.018700
      9 CBC          3.8630     2.8670     4.8790 ca         1 BF0      -0.175300
     10 CAN          4.1880     1.5130     6.7540 c3         1 BF0       0.153100
     11 OAA          5.4410     2.1070     6.2830 os         1 BF0      -0.301900
     12 CAB          5.1420     3.0660     5.3800 ca         1 BF0       0.117100
     13 CAC          5.8680     4.1660     4.9090 ca         1 BF0       0.089100
     14 OAD          7.1400     4.4080     5.3270 oh         1 BF0      -0.500100
     15 CAE          5.2310     4.9990     3.9930 ca         1 BF0      -0.124000
     16 CAF          3.9280     4.8030     3.5660 ca         1 BF0      -0.145000
     17 CAG          3.1960     3.7250     4.0350 ca         1 BF0      -0.036300
     18 CAH          1.7530     3.4770     3.7330 c3         1 BF0      -0.064100
     19 CAI          1.2260     2.1900     4.3440 c3         1 BF0       0.154500
     20 CAR          1.8280     1.8400     5.7030 c3         1 BF0       0.184800
     21 OAS          1.2250     0.6400     6.1930 oh         1 BF0      -0.589800
     22 CAQ          1.5940     2.9570     6.7150 c3         1 BF0      -0.105400
     23 CAP          2.2200     2.5270     8.0420 c3         1 BF0      -0.086400
     24 CAO          3.7180     2.3630     7.9170 c3         1 BF0       0.102700
     25 NAT          4.2160     1.7610     9.1560 ns         1 BF0      -0.580900
     26 CAU          4.5060     2.5420    10.2160 c          1 BF0       0.659100
     27 OAV          4.3530     3.7430    10.1440 o          1 BF0      -0.613100
     28 CAW          5.0200     1.9230    11.4910 c3         1 BF0      -0.148400
     29 CAX          5.2660     3.0210    12.5270 c3         1 BF0      -0.110400
     30 CAY          5.7800     2.4020    13.8020 c          1 BF0       0.628100
     31 OAZ          5.9330     1.2050    13.8730 o          1 BF0      -0.560000
     32 OBA          6.0680     3.1790    14.8570 os         1 BF0      -0.425900
     33 CBB          6.5580     2.5150    16.0510 c3         1 BF0       0.138700
     34 H1          -0.4670    -0.9390    -0.2700 hc         1 BF0       0.073450
     35 H2          -0.4670     0.9390    -0.2700 hc         1 BF0       0.073450
     36 H3           1.9970    -0.9390    -0.2700 hc         1 BF0       0.073450
     37 H4           1.9970     0.9390    -0.2710 hc         1 BF0       0.073450
     38 H5           0.7640    -0.9490     1.8490 hc         1 BF0       0.096700
     39 H6           1.2850     2.0680     1.5910 h1         1 BF0       0.036700
     40 H7          -0.2570     1.6050     2.3240 h1         1 BF0       0.036700
     41 H9           2.9700    -0.0620     2.5470 h1         1 BF0       0.044700
     42 H10          3.3490     1.6500     2.7950 h1         1 BF0       0.044700
     43 H11          4.5950     0.2790     4.4090 hc         1 BF0       0.064200
     44 H12          3.0820    -0.4580     4.9740 hc         1 BF0       0.064200
     45 H13          4.3340     0.4820     7.0510 h1         1 BF0       0.095700
     46 H14          7.7490     4.0930     4.6790 ho         1 BF0       0.416000
     47 H15          5.7820     5.8420     3.5950 ha         1 BF0       0.140000
     48 H16          3.4860     5.4850     2.8510 ha         1 BF0       0.135000
     49 H17          1.6280     3.4260     2.6580 hc         1 BF0       0.061700
     50 H18          1.1720     4.3060     4.1180 hc         1 BF0       0.061700
     51 H19          0.1570     2.3050     4.4790 h1         1 BF0       0.059700
     52 H20          0.2870     0.7330     6.1850 ho         1 BF0       0.407000
     53 H21          0.5300     3.1120     6.8480 hc         1 BF0       0.057200
     54 H22          2.0630     3.8700     6.3680 hc         1 BF0       0.057200
     55 H23          2.0090     3.2800     8.7910 hc         1 BF0       0.061700
     56 H24          1.7860     1.5830     8.3480 hc         1 BF0       0.061700
     57 H25          4.1560     3.3480     7.8130 h1         1 BF0       0.098700
     58 H26          4.3650     0.7720     9.2080 hn         1 BF0       0.316500
     59 H27          5.9480     1.4010    11.2900 hc         1 BF0       0.076200
     60 H28          4.2870     1.2230    11.8730 hc         1 BF0       0.076200
     61 H29          5.9990     3.7210    12.1450 hc         1 BF0       0.089200
     62 H30          4.3390     3.5430    12.7280 hc         1 BF0       0.089200
     63 H31          7.4760     1.9870    15.8200 h1         1 BF0       0.049033
     64 H32          5.8150     1.8100    16.4040 h1         1 BF0       0.049033
     65 H33          6.7500     3.2520    16.8210 h1         1 BF0       0.049033
@<TRIPOS>BOND
     1     1     2 1
     2     1     3 1
     3     2     3 1
     4     3     4 1
     5    21    20 1
     6    33    32 1
     7     4     5 1
     8    19     5 1
     9    19    20 1
    10    19    18 1
    11     5     6 1
    12    22    20 1
    13    22    23 1
    14    20     8 1
    15    23    24 1
    16    31    30 2
    17    18    17 1
    18    32    30 1
    19    30    29 1
    20     6     7 1
    21     8     7 1
    22     8    10 1
    23     8     9 1
    24    24    10 1
    25    24    25 1
    26    17     9 ar
    27    17    16 ar
    28    10    11 1
    29    27    26 2
    30     9    12 ar
    31    25    26 1
    32    26    28 1
    33    29    28 1
    34    16    15 ar
    35    11    12 1
    36    12    13 ar
    37    15    13 ar
    38    13    14 1
    39     1    34 1
    40     1    35 1
    41     2    36 1
    42     2    37 1
    43     3    38 1
    44     4    39 1
    45     4    40 1
    46     6    41 1
    47     6    42 1
    48     7    43 1
    49     7    44 1
    50    10    45 1
    51    14    46 1
    52    15    47 1
    53    16    48 1
    54    18    49 1
    55    18    50 1
    56    19    51 1
    57    21    52 1
    58    22    53 1
    59    22    54 1
    60    23    55 1
    61    23    56 1
    62    24    57 1
    63    25    58 1
    64    28    59 1
    65    28    60 1
    66    29    61 1
    67    29    62 1
    68    33    63 1
    69    33    64 1
    70    33    65 1
@<TRIPOS>SUBSTRUCTURE
     1 BF0         1 TEMP              0 ****  ****    0 ROOT
