@<TRIPOS>MOLECULE
BF3
   31    33     1     0     0
SMALL
bcc


@<TRIPOS>ATOM
      1 OAA          0.0000     0.0000     0.0000 o          1 BF3      -0.592500
      2 OAB          1.2210    -0.0000     4.3350 o          1 BF3      -0.611500
      3 OAD          4.2880    -0.0000     3.9930 oh         1 BF3      -0.480100
      4 CAG         -2.2500    -3.2750     4.1760 ca         1 BF3      -0.107000
      5 CAH         -2.5040    -4.0320     3.0480 ca         1 BF3      -0.066000
      6 CAI          4.4920     0.0000     0.3450 ca         1 BF3      -0.124000
      7 CAJ         -1.8060    -1.9720     4.0500 ca         1 BF3      -0.048000
      8 CAK          3.1510     0.0000     0.0000 ca         1 BF3      -0.014000
      9 CAL         -1.1350    -0.0020     2.6590 c3         1 BF3       0.124300
     10 CAM          4.8770    -0.0000     1.6750 ca         1 BF3       0.099100
     11 CAN          3.9110     0.0000     2.6890 ca         1 BF3       0.181100
     12 CAO         -2.3140    -3.4860     1.7910 ca         1 BF3      -0.081600
     13 CAP         -1.8710    -2.1800     1.6650 ca         1 BF3       0.134900
     14 CAQ         -1.6180    -1.4230     2.7950 ca         1 BF3      -0.161300
     15 CAR          0.7070    -0.0010     0.9880 c          1 BF3       0.649100
     16 CAS          1.3090    -0.0000     3.1230 c          1 BF3       0.664100
     17 CAT          2.1810     0.0000     0.9910 ca         1 BF3      -0.165600
     18 CAU          2.5650     0.0010     2.3510 ca         1 BF3      -0.194600
     19 NAV          0.2760    -0.0010     2.2620 n          1 BF3      -0.136400
     20 HOAC         6.5530    -0.8620     1.8600 ho         1 BF3       0.414000
     21 HOAD         4.4820     0.8820     4.2640 ho         1 BF3       0.416000
     22 HAG         -2.3980    -3.7040     5.1590 ha         1 BF3       0.113000
     23 HAH         -2.8510    -5.0530     3.1480 ha         1 BF3       0.118000
     24 HAI          5.2470     0.0010    -0.4320 ha         1 BF3       0.120000
     25 HAJ         -1.6080    -1.3800     4.9350 ha         1 BF3       0.121000
     26 HAK          2.8590     0.0000    -1.0430 ha         1 BF3       0.120000
     27 HAL         -1.2440     0.5080     3.6080 h1         1 BF3       0.047700
     28 HALA        -1.7230     0.5080     1.9050 h1         1 BF3       0.047700
     29 OAC          6.1960    -0.0000     1.9970 oh         1 BF3      -0.491100
     30 FAE         -1.6860    -1.6440     0.4370 f          1 BF3      -0.109900
     31 ClA         -2.6330    -4.4370     0.3740 cl         1 BF3       0.010600
@<TRIPOS>BOND
     1     1    15 2   
     2     2    16 2   
     3     3    11 1   
     4     3    21 1   
     5     4     5 ar  
     6     4     7 ar  
     7     4    22 1   
     8     5    12 ar  
     9     5    23 1   
    10     6     8 ar  
    11     6    10 ar  
    12     6    24 1   
    13     7    14 ar  
    14     7    25 1   
    15     8    17 ar  
    16     8    26 1   
    17     9    14 1   
    18     9    19 1   
    19     9    27 1   
    20     9    28 1   
    21    10    11 ar  
    22    10    29 1   
    23    11    18 ar  
    24    12    13 ar  
    25    12    31 1   
    26    13    14 ar  
    27    13    30 1   
    28    15    17 1   
    29    15    19 1   
    30    16    18 1   
    31    16    19 1   
    32    17    18 ar  
    33    20    29 1   
@<TRIPOS>SUBSTRUCTURE
     1 BF3         1 TEMP              0 ****  ****    0 ROOT
