@<TRIPOS>MOLECULE
BF5
   47    50     1     0     0
SMALL
bcc


@<TRIPOS>ATOM
      1 C1           0.0000     0.0000     0.0000 c2         1 BF5      -0.061700
      2 F1          -0.6430     0.0000    -1.1880 f          1 BF5      -0.186500
      3 N1           2.0230    -0.0000    -1.2220 nh         1 BF5      -0.436400
      4 O1           3.4590     0.0080     1.1990 os         1 BF5      -0.304900
      5 C2           1.3350     0.0000     0.0000 ce         1 BF5       0.100000
      6 N2           2.1830    -0.0220     3.6350 na         1 BF5       0.362900
      7 O2          -1.9590     0.0360     3.7650 oh         1 BF5      -0.468100
      8 C3           2.0940     0.0000     1.2500 ce         1 BF5      -0.178900
      9 N3           2.5870    -0.5580    -3.8940 n3         1 BF5      -0.502400
     10 O3           0.2210     0.1370     7.2620 o          1 BF5      -0.865300
     11 C4          -0.8140     0.0060     1.2530 c3         1 BF5       0.156100
     12 N4           2.4400    -1.0930    -5.2370 nz         1 BF5       0.179600
     13 O4          -1.6710    -0.0490     6.3220 o          1 BF5      -0.865300
     14 C5           4.1280     0.6250     2.3050 c3         1 BF5       0.193400
     15 C6           3.6500    -0.0560     3.5910 c3         1 BF5      -0.111000
     16 C7           4.1290    -1.5090     3.6100 c3         1 BF5      -0.008100
     17 C8           0.0290     0.0050     2.4940 cd         1 BF5      -0.260300
     18 C9           1.4440    -0.0080     2.4510 cd         1 BF5      -0.025300
     19 C10          1.5740    -0.0050     4.8400 cd         1 BF5      -0.188300
     20 C11          0.2010     0.0200     4.9340 cc         1 BF5      -0.204600
     21 C12         -0.6030     0.0200     3.7010 cc         1 BF5       0.265100
     22 C13          1.7740     1.0430    -2.2280 c3         1 BF5       0.215800
     23 C14          1.4890     0.3650    -3.5730 c3         1 BF5       0.124300
     24 C15          2.6860    -1.6400    -2.9000 c3         1 BF5       0.124300
     25 C16          3.0170    -1.0400    -1.5290 c3         1 BF5       0.215800
     26 C17         -0.4520     0.0370     6.2440 c          1 BF5       1.005200
     27 HO2         -2.2610     0.9280     3.7930 ho         1 BF5       0.415000
     28 H4          -1.4390     0.8910     1.2570 hc         1 BF5       0.018200
     29 H4A         -1.4460    -0.8740     1.2610 hc         1 BF5       0.018200
     30 HN4          3.2300    -1.6690    -5.4550 hn         1 BF5       0.223800
     31 HN4A         1.6040    -1.6410    -5.2890 hn         1 BF5       0.223800
     32 H5           3.8820     1.6790     2.3370 h1         1 BF5       0.016700
     33 H5A          5.1980     0.4960     2.2010 h1         1 BF5       0.016700
     34 H6           4.0480     0.4730     4.4490 h1         1 BF5       0.053700
     35 H7           3.4100    -2.1330     3.0920 hc         1 BF5       0.015367
     36 H7A          5.0900    -1.5790     3.1150 hc         1 BF5       0.015367
     37 H7B          4.2260    -1.8450     4.6350 hc         1 BF5       0.015367
     38 H10          2.1730    -0.0050     5.7430 h4         1 BF5       0.164000
     39 H13          2.6480     1.6770    -2.3190 h1         1 BF5       0.044200
     40 H13A         0.9170     1.6360    -1.9320 h1         1 BF5       0.044200
     41 H14          0.5600    -0.1880    -3.5080 h1         1 BF5       0.031700
     42 H14A         1.4140     1.1190    -4.3480 h1         1 BF5       0.031700
     43 H15          1.7410    -2.1670    -2.8440 h1         1 BF5       0.031700
     44 H15A         3.4720    -2.3260    -3.1920 h1         1 BF5       0.031700
     45 H16          2.9770    -1.8150    -0.7740 h1         1 BF5       0.044200
     46 H16A         4.0070    -0.5990    -1.5550 h1         1 BF5       0.044200
     47 H43          2.3290    -0.3400    -5.8860 hn         1 BF5       0.223800
@<TRIPOS>BOND
     1     1     2 1   
     2     1     5 2   
     3     1    11 1   
     4     3     5 1   
     5     3    22 1   
     6     3    25 1   
     7     4     8 1   
     8     4    14 1   
     9     5     8 1   
    10     6    15 1   
    11     6    18 1   
    12     6    19 1   
    13     7    21 1   
    14     7    27 1   
    15     8    18 2   
    16     9    12 1   
    17     9    23 1   
    18     9    24 1   
    19    10    26 1   
    20    11    17 1   
    21    11    28 1   
    22    11    29 1   
    23    12    30 1   
    24    12    31 1   
    25    12    47 1   
    26    13    26 1   
    27    14    15 1   
    28    14    32 1   
    29    14    33 1   
    30    15    16 1   
    31    15    34 1   
    32    16    35 1   
    33    16    36 1   
    34    16    37 1   
    35    17    18 1   
    36    17    21 2   
    37    19    20 2   
    38    19    38 1   
    39    20    21 1   
    40    20    26 1   
    41    22    23 1   
    42    22    39 1   
    43    22    40 1   
    44    23    41 1   
    45    23    42 1   
    46    24    25 1   
    47    24    43 1   
    48    24    44 1   
    49    25    45 1   
    50    25    46 1   
@<TRIPOS>SUBSTRUCTURE
     1 BF5         1 TEMP              0 ****  ****    0 ROOT
