@<TRIPOS>MOLECULE
molecule
   47    50     1     0     0
SMALL
bcc


@<TRIPOS>ATOM
      1 C1           0.0000     0.0000     0.0000 c2         1 BF5      -0.010700
      2 F1          -0.6430     0.0000    -1.1880 f          1 BF5      -0.208500
      3 N1           2.0230    -0.0000    -1.2220 nh         1 BF5      -0.763400
      4 O1           3.4590     0.0080     1.1990 os         1 BF5      -0.336900
      5 C2           1.3350     0.0000     0.0000 ce         1 BF5       0.197000
      6 N2           2.1830    -0.0220     3.6350 na         1 BF5      -0.102100
      7 O2          -1.9590     0.0360     3.7650 oh         1 BF5      -0.490100
      8 C3           2.0940     0.0000     1.2500 ce         1 BF5      -0.156900
      9 N3           2.5870    -0.5580    -3.8940 n3         1 BF5      -0.469400
     10 O3           0.2210     0.1370     7.2620 o          1 BF5      -0.813800
     11 C4          -0.8140     0.0060     1.2530 c3         1 BF5       0.058100
     12 N4           2.4400    -1.0930    -5.2370 nz         1 BF5      -0.622400
     13 O4          -1.6710    -0.0490     6.3220 o          1 BF5      -0.813800
     14 C5           4.1280     0.6250     2.3050 c3         1 BF5       0.127400
     15 C6           3.6500    -0.0560     3.5910 c3         1 BF5       0.009000
     16 C7           4.1290    -1.5090     3.6100 c3         1 BF5      -0.102100
     17 C8           0.0290     0.0050     2.4940 cd         1 BF5      -0.240300
     18 C9           1.4440    -0.0080     2.4510 cd         1 BF5       0.116700
     19 C10          1.5740    -0.0050     4.8400 cd         1 BF5      -0.025300
     20 C11          0.2010     0.0200     4.9340 cc         1 BF5      -0.228600
     21 C12         -0.6030     0.0200     3.7010 cc         1 BF5       0.247100
     22 C13          1.7740     1.0430    -2.2280 c3         1 BF5       0.277800
     23 C14          1.4890     0.3650    -3.5730 c3         1 BF5       0.089300
     24 C15          2.6860    -1.6400    -2.9000 c3         1 BF5       0.089300
     25 C16          3.0170    -1.0400    -1.5290 c3         1 BF5       0.277800
     26 C17         -0.4520     0.0370     6.2440 c          1 BF5       0.917200
     27 HO2         -2.2610     0.9280     3.7930 ho         1 BF5       0.436000
     28 H4          -1.4390     0.8910     1.2570 hc         1 BF5       0.055700
     29 H4A         -1.4460    -0.8740     1.2610 hc         1 BF5       0.055700
     30 HN4          3.2300    -1.6690    -5.4550 hn         1 BF5       0.443467
     31 HN4A         1.6040    -1.6410    -5.2890 hn         1 BF5       0.443467
     32 H5           3.8820     1.6790     2.3370 h1         1 BF5       0.055200
     33 H5A          5.1980     0.4960     2.2010 h1         1 BF5       0.055200
     34 H6           4.0480     0.4730     4.4490 h1         1 BF5       0.076700
     35 H7           3.4100    -2.1330     3.0920 hc         1 BF5       0.047367
     36 H7A          5.0900    -1.5790     3.1150 hc         1 BF5       0.047367
     37 H7B          4.2260    -1.8450     4.6350 hc         1 BF5       0.047367
     38 H10          2.1730    -0.0050     5.7430 h4         1 BF5       0.192000
     39 H13          2.6480     1.6770    -2.3190 h1         1 BF5       0.079700
     40 H13A         0.9170     1.6360    -1.9320 h1         1 BF5       0.079700
     41 H14          0.5600    -0.1880    -3.5080 h1         1 BF5       0.064450
     42 H14A         1.4140     1.1190    -4.3480 h1         1 BF5       0.064450
     43 H15          1.7410    -2.1670    -2.8440 h1         1 BF5       0.064450
     44 H15A         3.4720    -2.3260    -3.1920 h1         1 BF5       0.064450
     45 H16          2.9770    -1.8150    -0.7740 h1         1 BF5       0.079700
     46 H16A         4.0070    -0.5990    -1.5550 h1         1 BF5       0.079700
     47 H43          2.3290    -0.3400    -5.8860 hn         1 BF5       0.443467
@<TRIPOS>BOND
     1     1     2 1
     2     1     5 2
     3     1    11 1
     4     3     5 1
     5     3    22 1
     6     3    25 1
     7     4     8 1
     8     4    14 1
     9     5     8 1
    10     6    15 1
    11     6    18 1
    12     6    19 1
    13     7    21 1
    14     8    18 2
    15     9    12 1
    16     9    23 1
    17     9    24 1
    18    10    26 1
    19    11    17 1
    20    13    26 1
    21    14    15 1
    22    15    16 1
    23    17    18 1
    24    17    21 2
    25    19    20 2
    26    20    21 1
    27    20    26 1
    28    22    23 1
    29    24    25 1
    30     7    27 1
    31    11    28 1
    32    11    29 1
    33    12    30 1
    34    12    31 1
    35    14    32 1
    36    14    33 1
    37    15    34 1
    38    16    35 1
    39    16    36 1
    40    16    37 1
    41    19    38 1
    42    22    39 1
    43    22    40 1
    44    23    41 1
    45    23    42 1
    46    24    43 1
    47    24    44 1
    48    25    45 1
    49    25    46 1
    50    47    12 1
@<TRIPOS>SUBSTRUCTURE
     1 BF5         1 TEMP              0 ****  ****    0 ROOT
