@<TRIPOS>MOLECULE
BFA
   40    42     1     0     0
SMALL
bcc


@<TRIPOS>ATOM
      1 Br           0.0000     0.0000     0.0000 br         1 BFA      -0.072100
      2 C4           5.2170     0.0000     0.0000 ca         1 BFA      -0.172900
      3 C3           6.5720     0.0000     0.2890 ca         1 BFA      -0.076000
      4 C2           7.0310     0.0040     1.6010 ca         1 BFA      -0.102000
      5 C1           6.1920     0.0070     2.6680 ca         1 BFA      -0.119300
      6 N9           3.9610     0.0090     3.5170 nb         1 BFA      -0.529000
      7 C8           1.7370     0.0110     4.3820 ca         1 BFA      -0.141300
      8 C7           0.4040     0.0120     4.1310 ca         1 BFA      -0.083000
      9 C6          -0.0980     0.0080     2.8280 ca         1 BFA      -0.079000
     10 C5           0.7250     0.0050     1.7460 ca         1 BFA      -0.016200
     11 C12          4.2640     0.0090     1.1120 ca         1 BFA       0.293300
     12 C11          4.7930     0.0070     2.4800 ca         1 BFA       0.267300
     13 C13          2.6500     0.0090     3.3050 ca         1 BFA       0.277300
     14 C14          2.1230     0.0050     1.9340 ca         1 BFA       0.272300
     15 N10          2.9560     0.0020     0.8970 nb         1 BFA      -0.452000
     16 OD1          3.5530    -0.0030    -1.6350 o          1 BFA      -0.601100
     17 ND1          5.6350    -0.0060    -2.4090 ns         1 BFA      -0.210900
     18 CD2          5.1660    -0.0090    -3.7960 c3         1 BFA       0.042000
     19 CD3          6.3680    -0.0120    -4.7420 c3         1 BFA       0.124800
     20 ND2          5.8980    -0.0150    -6.1330 n3         1 BFA      -0.514600
     21 CD7          7.0960    -0.0190    -6.9830 c3         1 BFA       0.164600
     22 CD8          5.2250    -1.3020    -6.3480 c3         1 BFA       0.164600
     23 H3           7.2880    -0.0020    -0.5240 ha         1 BFA       0.103000
     24 H2           8.0990     0.0040     1.7790 ha         1 BFA       0.105000
     25 H1           6.6000     0.0110     3.6720 ha         1 BFA       0.119000
     26 H8           2.0990     0.0150     5.4030 ha         1 BFA       0.121000
     27 H7          -0.2900     0.0140     4.9630 ha         1 BFA       0.107000
     28 H6          -1.1700     0.0090     2.6750 ha         1 BFA       0.117000
     29 HN1          6.6160     0.0060    -2.2120 hn         1 BFA       0.174500
     30 HD21         4.5660    -0.8940    -3.9730 h1         1 BFA       0.036700
     31 HD22         4.5670     0.8750    -3.9770 h1         1 BFA       0.036700
     32 HD31         6.9670    -0.8960    -4.5610 h1         1 BFA       0.011700
     33 HD32         6.9680     0.8730    -4.5660 h1         1 BFA       0.011700
     34 HD71         7.6920     0.8600    -6.7700 h1         1 BFA       0.006033
     35 HD72         6.8000    -0.0100    -8.0250 h1         1 BFA       0.006033
     36 HD73         7.6800    -0.9090    -6.7810 h1         1 BFA       0.006033
     37 HD81         5.2940    -1.5750    -7.3940 h1         1 BFA       0.006033
     38 HD82         4.1830    -1.2160    -6.0660 h1         1 BFA       0.006033
     39 HD83         5.7020    -2.0640    -5.7430 h1         1 BFA       0.006033
     40 CD1          4.7450    -0.0030    -1.3960 c          1 BFA       0.582700
@<TRIPOS>BOND
     1     1    10 1   
     2     2     3 ar  
     3     2    11 ar  
     4     2    40 1   
     5     3     4 ar  
     6     3    23 1   
     7     4     5 ar  
     8     4    24 1   
     9     5    12 ar  
    10     5    25 1   
    11     6    12 ar  
    12     6    13 ar  
    13     7     8 ar  
    14     7    13 ar  
    15     7    26 1   
    16     8     9 ar  
    17     8    27 1   
    18     9    10 ar  
    19     9    28 1   
    20    10    14 ar  
    21    11    12 ar  
    22    11    15 ar  
    23    13    14 ar  
    24    14    15 ar  
    25    16    40 2   
    26    17    18 1   
    27    17    29 1   
    28    17    40 1   
    29    18    19 1   
    30    18    30 1   
    31    18    31 1   
    32    19    20 1   
    33    19    32 1   
    34    19    33 1   
    35    20    21 1   
    36    20    22 1   
    37    21    34 1   
    38    21    35 1   
    39    21    36 1   
    40    22    37 1   
    41    22    38 1   
    42    22    39 1   
@<TRIPOS>SUBSTRUCTURE
     1 BFA         1 TEMP              0 ****  ****    0 ROOT
