@<TRIPOS>MOLECULE
BFB
   41    41     1     0     0
SMALL
bcc


@<TRIPOS>ATOM
      1 OAE          0.0000     0.0000     0.0000 o          1 BFB      -0.370100
      2 CAU          1.2290     0.0000     0.0000 c          1 BFB       0.303100
      3 NAA          1.9890    -0.0280    -1.1500 nz         1 BFB       0.177600
      4 CAZ          2.0690     0.0000     1.2700 c3         1 BFB      -0.050300
      5 CAO          2.3340    -1.4200     1.7920 c3         1 BFB      -0.018400
      6 CAM          3.1660    -1.4120     3.0830 c3         1 BFB      -0.029400
      7 CAN          3.4220    -2.8160     3.6260 c3         1 BFB       0.181800
      8 NAR          4.2030    -2.7620     4.8390 nu         1 BFB      -0.545200
      9 CAV          4.5960    -3.8700     5.5580 c2         1 BFB       0.462200
     10 CAP          5.4130    -3.6190     6.8060 c3         1 BFB      -0.024400
     11 NAC          4.3290    -5.1010     5.2390 n2         1 BFB      -0.733100
     12 NAS          1.2900     0.7420     2.2620 ns         1 BFB      -0.224900
     13 CAW          1.4010     2.1070     2.3970 c          1 BFB       0.623700
     14 OAF          2.1340     2.8330     1.7310 o          1 BFB      -0.628100
     15 CAX          0.5630     2.7080     3.4680 ca         1 BFB      -0.191600
     16 CAK         -0.6040     2.0710     3.8370 ca         1 BFB      -0.058000
     17 CAL          0.9780     3.8840     4.0570 ca         1 BFB      -0.058000
     18 CAJ          0.1920     4.4470     5.0620 ca         1 BFB      -0.094500
     19 CAH         -0.9930     3.8230     5.4530 ca         1 BFB      -0.053000
     20 CAI         -1.3900     2.6340     4.8410 ca         1 BFB      -0.094500
     21 HAA1         1.4010     0.1380    -1.9430 hn         1 BFB       0.250133
     22 HAA2         2.6920     0.6820    -1.1030 hn         1 BFB       0.250133
     23 HAZ          3.0090     0.5060     1.0890 h1         1 BFB       0.071700
     24 HAO1         1.3860    -1.9060     1.9880 hc         1 BFB       0.027200
     25 HAO2         2.8670    -1.9800     1.0330 hc         1 BFB       0.027200
     26 HAM1         2.6390    -0.8370     3.8350 hc         1 BFB       0.029200
     27 HAM2         4.1180    -0.9350     2.8820 hc         1 BFB       0.029200
     28 HAN1         2.4740    -3.2960     3.8330 h1         1 BFB       0.010700
     29 HAN2         3.9590    -3.3930     2.8820 h1         1 BFB       0.010700
     30 HNAR         4.4760    -1.8620     5.1800 hn         1 BFB       0.293800
     31 HAP1         5.6600    -4.5640     7.2730 hc         1 BFB       0.021033
     32 HAP2         4.8390    -3.0140     7.4980 hc         1 BFB       0.021033
     33 HAP3         6.3250    -3.0970     6.5410 hc         1 BFB       0.021033
     34 HNAC         3.7950    -5.3010     4.4170 hn         1 BFB       0.311400
     35 HNAS         0.6590     0.2440     2.8580 hn         1 BFB       0.222500
     36 HAK         -0.9030     1.1480     3.3550 ha         1 BFB       0.113500
     37 HAL          1.8990     4.3600     3.7460 ha         1 BFB       0.113500
     38 HAJ          0.5000     5.3710     5.5370 ha         1 BFB       0.117500
     39 HAH         -1.6040     4.2610     6.2330 ha         1 BFB       0.117000
     40 HAI         -2.3100     2.1490     5.1450 ha         1 BFB       0.117500
     41 HAA3         2.4560    -0.9110    -1.2200 hn         1 BFB       0.250133
@<TRIPOS>BOND
     1     1     2 2   
     2     2     3 1   
     3     2     4 1   
     4     3    21 1   
     5     3    22 1   
     6     3    41 1   
     7     4     5 1   
     8     4    12 1   
     9     4    23 1   
    10     5     6 1   
    11     5    24 1   
    12     5    25 1   
    13     6     7 1   
    14     6    26 1   
    15     6    27 1   
    16     7     8 1   
    17     7    28 1   
    18     7    29 1   
    19     8     9 1   
    20     8    30 1   
    21     9    10 1   
    22     9    11 2   
    23    10    31 1   
    24    10    32 1   
    25    10    33 1   
    26    11    34 1   
    27    12    13 1   
    28    12    35 1   
    29    13    14 2   
    30    13    15 1   
    31    15    16 ar  
    32    15    17 ar  
    33    16    20 ar  
    34    16    36 1   
    35    17    18 ar  
    36    17    37 1   
    37    18    19 ar  
    38    18    38 1   
    39    19    20 ar  
    40    19    39 1   
    41    20    40 1   
@<TRIPOS>SUBSTRUCTURE
     1 BFB         1 TEMP              0 ****  ****    0 ROOT
