@<TRIPOS>MOLECULE
molecule
   41    41     1     0     0
SMALL
bcc


@<TRIPOS>ATOM
      1 OAE          0.0000     0.0000     0.0000 o          1 BFB      -0.374100
      2 CAU          1.2290     0.0000     0.0000 c          1 BFB       0.470100
      3 NAA          1.9890    -0.0280    -1.1500 nz         1 BFB      -0.694400
      4 CAZ          2.0690     0.0000     1.2700 c3         1 BFB       0.040700
      5 CAO          2.3340    -1.4200     1.7920 c3         1 BFB      -0.084400
      6 CAM          3.1660    -1.4120     3.0830 c3         1 BFB      -0.097400
      7 CAN          3.4220    -2.8160     3.6260 c3         1 BFB       0.253800
      8 NAR          4.2030    -2.7620     4.8390 nu         1 BFB      -0.886200
      9 CAV          4.5960    -3.8700     5.5580 c2         1 BFB       0.648200
     10 CAP          5.4130    -3.6190     6.8060 c3         1 BFB      -0.192400
     11 NAC          4.3290    -5.1010     5.2390 n2         1 BFB      -0.897100
     12 NAS          1.2900     0.7420     2.2620 ns         1 BFB      -0.585900
     13 CAW          1.4010     2.1070     2.3970 c          1 BFB       0.683700
     14 OAF          2.1340     2.8330     1.7310 o          1 BFB      -0.592100
     15 CAX          0.5630     2.7080     3.4680 ca         1 BFB      -0.168600
     16 CAK         -0.6040     2.0710     3.8370 ca         1 BFB      -0.088000
     17 CAL          0.9780     3.8840     4.0570 ca         1 BFB      -0.088000
     18 CAJ          0.1920     4.4470     5.0620 ca         1 BFB      -0.124500
     19 CAH         -0.9930     3.8230     5.4530 ca         1 BFB      -0.087000
     20 CAI         -1.3900     2.6340     4.8410 ca         1 BFB      -0.124500
     21 HAA1         2.7630     0.5990    -1.0540 hn         1 BFB       0.476133
     22 HAA2         1.4260     0.2530    -1.9290 hn         1 BFB       0.476133
     23 HAZ          3.0090     0.5060     1.0890 h1         1 BFB       0.100700
     24 HAO1         1.3860    -1.9060     1.9880 hc         1 BFB       0.061700
     25 HAO2         2.8670    -1.9800     1.0330 hc         1 BFB       0.061700
     26 HAM1         2.6390    -0.8370     3.8350 hc         1 BFB       0.058200
     27 HAM2         4.1180    -0.9350     2.8820 hc         1 BFB       0.058200
     28 HAN1         3.9590    -3.3930     2.8820 h1         1 BFB       0.049700
     29 HAN2         2.4740    -3.2960     3.8330 h1         1 BFB       0.049700
     30 HNAR         4.4760    -1.8620     5.1800 hn         1 BFB       0.435800
     31 HAP1         6.2880    -3.0320     6.5530 hc         1 BFB       0.057033
     32 HAP2         5.7250    -4.5650     7.2310 hc         1 BFB       0.057033
     33 HAP3         4.8130    -3.0790     7.5280 hc         1 BFB       0.057033
     34 HNAC         4.6580    -5.8500     5.8160 hn         1 BFB       0.421400
     35 HNAS         0.6590     0.2440     2.8580 hn         1 BFB       0.355500
     36 HAK         -0.9030     1.1480     3.3550 ha         1 BFB       0.142000
     37 HAL          1.8990     4.3600     3.7460 ha         1 BFB       0.142000
     38 HAJ          0.5000     5.3710     5.5370 ha         1 BFB       0.149500
     39 HAH         -1.6040     4.2610     6.2330 ha         1 BFB       0.151000
     40 HAI         -2.3100     2.1490     5.1450 ha         1 BFB       0.149500
     41 HAA3         2.3610    -0.9480    -1.2820 hn         1 BFB       0.476133
@<TRIPOS>BOND
     1     1     2 2
     2     2     4 1
     3     2     3 1
     4     3    21 1
     5     3    22 1
     6     4     5 1
     7     4    12 1
     8     4    23 1
     9     5     6 1
    10     5    24 1
    11     5    25 1
    12     6     7 1
    13     6    26 1
    14     6    27 1
    15     7     8 1
    16     7    28 1
    17     7    29 1
    18     8     9 1
    19     8    30 1
    20     9    11 2
    21     9    10 1
    22    10    31 1
    23    10    32 1
    24    10    33 1
    25    11    34 1
    26    12    13 1
    27    12    35 1
    28    13    14 2
    29    13    15 1
    30    15    17 ar
    31    15    16 ar
    32    16    20 ar
    33    16    36 1
    34    17    18 ar
    35    17    37 1
    36    18    19 ar
    37    18    38 1
    38    19    20 ar
    39    19    39 1
    40    20    40 1
    41    41     3 1
@<TRIPOS>SUBSTRUCTURE
     1 BFB         1 TEMP              0 ****  ****    0 ROOT
