@<TRIPOS>MOLECULE
molecule
   23    23     1     0     0
SMALL
bcc


@<TRIPOS>ATOM
      1 C4           0.0000     0.0000     0.0000 ca         1 BFE      -0.146600
      2 C5           1.3960     0.0000     0.0000 ca         1 BFE      -0.086000
      3 C6           2.0820     0.0000     1.1960 ca         1 BFE      -0.138000
      4 C7          -0.7430    -0.0010    -1.2780 c          1 BFE       0.674700
      5 C10         -2.8260    -0.0020    -2.5420 c3         1 BFE       0.130000
      6 C2           0.0080    -0.0110     2.4020 ca         1 BFE      -0.138000
      7 C3          -0.6920    -0.0060     1.2120 ca         1 BFE      -0.086000
      8 N9          -2.0900    -0.0020    -1.2750 ns         1 BFE      -0.587900
      9 C11         -4.3300    -0.0020    -2.2570 c3         1 BFE       0.014700
     10 S12         -5.2410    -0.0030    -3.8260 sh         1 BFE      -0.402900
     11 O8          -0.1370    -0.0010    -2.3330 o          1 BFE      -0.603100
     12 C1           1.3910     0.0000     2.3950 ca         1 BFE      -0.105000
     13 H5           1.9390    -0.0000    -0.9370 ha         1 BFE       0.140500
     14 H6           3.1650     0.0040     1.1980 ha         1 BFE       0.134500
     15 H10         -2.5650    -0.8860    -3.1100 h1         1 BFE       0.069700
     16 H10A        -2.5660     0.8830    -3.1100 h1         1 BFE       0.069700
     17 H2          -0.5280    -0.0130     3.3440 ha         1 BFE       0.134500
     18 H3          -1.7750    -0.0100     1.2200 ha         1 BFE       0.140500
     19 HN9         -2.5880     0.0240    -0.4070 hn         1 BFE       0.313500
     20 H11         -4.5900    -0.8870    -1.6890 h1         1 BFE       0.058700
     21 H11A        -4.5910     0.8820    -1.6890 h1         1 BFE       0.058700
     22 HS12        -6.5450    -0.0050    -3.5810 hs         1 BFE       0.219800
     23 H1           1.9360    -0.0020     3.3310 ha         1 BFE       0.133000
@<TRIPOS>BOND
     1     1     2 ar
     2     1     4 1
     3     1     7 ar
     4     2     3 ar
     5     3    12 ar
     6     4     8 1
     7     4    11 2
     8     5     8 1
     9     5     9 1
    10     6     7 ar
    11     6    12 ar
    12     9    10 1
    13     2    13 1
    14     3    14 1
    15     5    15 1
    16     5    16 1
    17     6    17 1
    18     7    18 1
    19     8    19 1
    20     9    20 1
    21     9    21 1
    22    10    22 1
    23    12    23 1
@<TRIPOS>SUBSTRUCTURE
     1 BFE         1 TEMP              0 ****  ****    0 ROOT
