@<TRIPOS>MOLECULE
BFF
   57    59     1     0     0
SMALL
bcc


@<TRIPOS>ATOM
      1 NAA          0.0000     0.0000     0.0000 nz         1 BFF       0.192600
      2 OAB          1.9560     0.3350    -0.9990 o          1 BFF      -0.395100
      3 OAC          3.2660    -4.1580     2.1120 o          1 BFF      -0.625100
      4 CAG          0.6090     5.8490     3.1370 ca         1 BFF      -0.126500
      5 CAH          2.6850     6.2290     2.0040 ca         1 BFF      -0.126500
      6 CAI          2.5400    -7.4840    -0.3350 c3         1 BFF      -0.040400
      7 CAJ          3.0370    -8.8600     0.1110 c3         1 BFF      -0.026400
      8 CAK          3.0250   -13.5790    -0.8530 c3         1 BFF      -0.027400
      9 CAL          2.2390   -13.2740     0.4430 c3         1 BFF      -0.027400
     10 CAM          2.9210    -6.4380     0.7140 c3         1 BFF       0.054000
     11 CAN          2.6550    -9.9060    -0.9380 c3         1 BFF       0.155800
     12 CAO          2.9960   -12.2240    -1.6020 c3         1 BFF       0.148800
     13 CAP          2.3190   -11.7450     0.6120 c3         1 BFF       0.148800
     14 CAQ          2.6130     2.6460     3.2020 c3         1 BFF       0.289700
     15 NAR          3.1080     0.0000     3.2180 nc         1 BFF      -0.482100
     16 SAV          3.2790    -1.6670     2.9720 ss         1 BFF       0.206200
     17 CAW          1.3480     0.0000     0.0000 c          1 BFF       0.407700
     18 CAX          2.6690    -4.0400     1.0590 c          1 BFF       0.532100
     19 CAY          1.4610     6.6940     2.4490 ca         1 BFF       0.078100
     20 CAZ          0.9810     4.5380     3.3810 ca         1 BFF       0.158900
     21 CBA          3.0590     4.9180     2.2470 ca         1 BFF       0.158900
     22 CBB          2.4630     0.4930     2.2050 cd         1 BFF       0.682600
     23 CBC          2.2070     4.0730     2.9360 ca         1 BFF      -0.199300
     24 CBD          2.4620    -1.7160     1.4600 cc         1 BFF       0.082500
     25 CBE          2.0810    -0.4040     1.2040 cd         1 BFF      -0.535900
     26 NBF          3.1320   -11.2280    -0.5090 n3         1 BFF      -0.541600
     27 HNAA        -0.3340    -0.4930     0.8040 hn         1 BFF       0.247133
     28 HNAB        -0.3340     0.9430     0.0250 hn         1 BFF       0.247133
     29 HAG         -0.3500     6.2130     3.4840 ha         1 BFF       0.143500
     30 HAH          3.3520     6.8910     1.4650 ha         1 BFF       0.143500
     31 HAI          1.4620    -7.5080    -0.4460 hc         1 BFF       0.015700
     32 HAIA         2.9950    -7.2260    -1.2840 hc         1 BFF       0.015700
     33 HAJ          2.5820    -9.1170     1.0600 hc         1 BFF       0.029700
     34 HAJA         4.1140    -8.8360     0.2220 hc         1 BFF       0.029700
     35 HAL          2.7030   -13.7690     1.2880 hc         1 BFF       0.022200
     36 HALA         1.2070   -13.5850     0.3370 hc         1 BFF       0.022200
     37 HAM          3.9990    -6.4140     0.8260 h1         1 BFF       0.040200
     38 HAMA         2.4660    -6.6960     1.6630 h1         1 BFF       0.040200
     39 HAN          3.1110    -9.6480    -1.8870 h1         1 BFF       0.008200
     40 HANA         1.5780    -9.9290    -1.0490 h1         1 BFF       0.008200
     41 HAO          3.8310   -12.1510    -2.2890 h1         1 BFF       0.012450
     42 HAOA         2.0530   -12.0950    -2.1200 h1         1 BFF       0.012450
     43 HAP          2.7960   -11.5030     1.5550 h1         1 BFF       0.012450
     44 HAPA         1.3240   -11.3180     0.5740 h1         1 BFF       0.012450
     45 HAQ          3.6910     2.5870     3.2880 h1         1 BFF       0.037200
     46 HAQA         2.1580     2.3070     4.1240 h1         1 BFF       0.037200
     47 OAU          2.1760     1.8180     2.1220 os         1 BFF      -0.450100
     48 FAE          4.2550     4.4650     1.8120 f          1 BFF      -0.116400
     49 BrAF         0.9520     8.4840     2.1160 br         1 BFF      -0.061100
     50 NAS          2.4460    -5.1200     0.2860 ns         1 BFF      -0.169900
     51 HAK          4.0440   -13.8660    -0.6220 hc         1 BFF       0.022200
     52 HNAS         1.9550    -5.0230    -0.5800 hn         1 BFF       0.167500
     53 HAA3        -0.3340    -0.4300    -0.8400 hn         1 BFF       0.247133
     54 NAT          2.2320    -2.8270     0.6660 ns         1 BFF       0.027900
     55 FAD          0.1490     3.7130     4.0540 f          1 BFF      -0.116400
     56 HAKA         2.5250   -14.3460    -1.4310 hc         1 BFF       0.022200
     57 HNAT         1.7450    -2.7290    -0.2030 hn         1 BFF       0.145500
@<TRIPOS>BOND
     1     1    17 1   
     2     1    27 1   
     3     1    28 1   
     4     1    53 1   
     5     2    17 2   
     6     3    18 2   
     7     4    19 ar  
     8     4    20 ar  
     9     4    29 1   
    10     5    19 ar  
    11     5    21 ar  
    12     5    30 1   
    13     6     7 1   
    14     6    10 1   
    15     6    31 1   
    16     6    32 1   
    17     7    11 1   
    18     7    33 1   
    19     7    34 1   
    20     8     9 1   
    21     8    12 1   
    22     8    51 1   
    23     8    56 1   
    24     9    13 1   
    25     9    35 1   
    26     9    36 1   
    27    10    37 1   
    28    10    38 1   
    29    10    50 1   
    30    11    26 1   
    31    11    39 1   
    32    11    40 1   
    33    12    26 1   
    34    12    41 1   
    35    12    42 1   
    36    13    26 1   
    37    13    43 1   
    38    13    44 1   
    39    14    23 1   
    40    14    45 1   
    41    14    46 1   
    42    14    47 1   
    43    15    16 1   
    44    15    22 2   
    45    16    24 1   
    46    17    25 1   
    47    18    50 1   
    48    18    54 1   
    49    19    49 1   
    50    20    23 ar  
    51    20    55 1   
    52    21    23 ar  
    53    21    48 1   
    54    22    25 1   
    55    22    47 1   
    56    24    25 2   
    57    24    54 1   
    58    50    52 1   
    59    54    57 1   
@<TRIPOS>SUBSTRUCTURE
     1 BFF         1 TEMP              0 ****  ****    0 ROOT
