@<TRIPOS>MOLECULE
molecule
   57    59     1     0     0
SMALL
bcc


@<TRIPOS>ATOM
      1 NAA          0.0000     0.0000     0.0000 nz         1 BFF      -0.681400
      2 OAB          1.9560     0.3350    -0.9990 o          1 BFF      -0.388100
      3 OAC          3.2660    -4.1580     2.1120 o          1 BFF      -0.607100
      4 CAG          0.6090     5.8490     3.1370 ca         1 BFF      -0.161000
      5 CAH          2.6850     6.2290     2.0040 ca         1 BFF      -0.161000
      6 CAI          2.5400    -7.4840    -0.3350 c3         1 BFF      -0.104400
      7 CAJ          3.0370    -8.8600     0.1110 c3         1 BFF      -0.075400
      8 CAK          3.0250   -13.5790    -0.8530 c3         1 BFF      -0.086900
      9 CAL          2.2390   -13.2740     0.4430 c3         1 BFF      -0.086900
     10 CAM          2.9210    -6.4380     0.7140 c3         1 BFF       0.122000
     11 CAN          2.6550    -9.9060    -0.9380 c3         1 BFF       0.156800
     12 CAO          2.9960   -12.2240    -1.6020 c3         1 BFF       0.143800
     13 CAP          2.3190   -11.7450     0.6120 c3         1 BFF       0.143800
     14 CAQ          2.6130     2.6460     3.2020 c3         1 BFF       0.202700
     15 NAR          3.1080     0.0000     3.2180 nc         1 BFF      -0.593100
     16 SAV          3.2790    -1.6670     2.9720 ss         1 BFF       0.422200
     17 CAW          1.3480     0.0000     0.0000 c          1 BFF       0.553700
     18 CAX          2.6690    -4.0400     1.0590 c          1 BFF       0.770100
     19 CAY          1.4610     6.6940     2.4490 ca         1 BFF       0.041100
     20 CAZ          0.9810     4.5380     3.3810 ca         1 BFF       0.183400
     21 CBA          3.0590     4.9180     2.2470 ca         1 BFF       0.183400
     22 CBB          2.4630     0.4930     2.2050 cd         1 BFF       0.671600
     23 CBC          2.2070     4.0730     2.9360 ca         1 BFF      -0.193300
     24 CBD          2.4620    -1.7160     1.4600 cc         1 BFF       0.141500
     25 CBE          2.0810    -0.4040     1.2040 cd         1 BFF      -0.495900
     26 NBF          3.1320   -11.2280    -0.5090 n3         1 BFF      -0.704600
     27 HNAA        -0.3340    -0.4930     0.8040 hn         1 BFF       0.476133
     28 HNAB        -0.3340     0.9430     0.0250 hn         1 BFF       0.476133
     29 HAG         -0.3500     6.2130     3.4840 ha         1 BFF       0.174000
     30 HAH          3.3520     6.8910     1.4650 ha         1 BFF       0.174000
     31 HAI          1.4620    -7.5080    -0.4460 hc         1 BFF       0.046700
     32 HAIA         2.9950    -7.2260    -1.2840 hc         1 BFF       0.046700
     33 HAJ          2.5820    -9.1170     1.0600 hc         1 BFF       0.058700
     34 HAJA         4.1140    -8.8360     0.2220 hc         1 BFF       0.058700
     35 HAL          2.7030   -13.7690     1.2880 hc         1 BFF       0.053700
     36 HALA         1.2070   -13.5850     0.3370 hc         1 BFF       0.053700
     37 HAM          3.9990    -6.4140     0.8260 h1         1 BFF       0.068200
     38 HAMA         2.4660    -6.6960     1.6630 h1         1 BFF       0.068200
     39 HAN          3.1110    -9.6480    -1.8870 h1         1 BFF       0.033700
     40 HANA         1.5780    -9.9290    -1.0490 h1         1 BFF       0.033700
     41 HAO          3.8310   -12.1510    -2.2890 h1         1 BFF       0.041200
     42 HAOA         2.0530   -12.0950    -2.1200 h1         1 BFF       0.041200
     43 HAP          2.7960   -11.5030     1.5550 h1         1 BFF       0.041200
     44 HAPA         1.3240   -11.3180     0.5740 h1         1 BFF       0.041200
     45 HAQ          3.6910     2.5870     3.2880 h1         1 BFF       0.079200
     46 HAQA         2.1580     2.3070     4.1240 h1         1 BFF       0.079200
     47 OAU          2.1760     1.8180     2.1220 os         1 BFF      -0.456100
     48 FAE          4.2550     4.4650     1.8120 f          1 BFF      -0.123400
     49 BrAF         0.9520     8.4840     2.1160 br         1 BFF      -0.034100
     50 NAS          2.4460    -5.1200     0.2860 ns         1 BFF      -0.572900
     51 HAK          4.0440   -13.8660    -0.6220 hc         1 BFF       0.053700
     52 HNAS         1.9550    -5.0230    -0.5800 hn         1 BFF       0.313500
     53 HAA3        -0.3340    -0.4300    -0.8400 hn         1 BFF       0.476133
     54 NAT          2.2320    -2.8270     0.6660 ns         1 BFF      -0.443100
     55 FAD          0.1490     3.7130     4.0540 f          1 BFF      -0.123400
     56 HAKA         2.5250   -14.3460    -1.4310 hc         1 BFF       0.053700
     57 HNAT         1.7450    -2.7290    -0.2030 hn         1 BFF       0.316500
@<TRIPOS>BOND
     1    17     1 1
     2     1    27 1
     3     1    28 1
     4     2    17 2
     5    18     3 2
     6    55    20 1
     7    21    48 1
     8    49    19 1
     9     4    20 ar
    10     4    19 ar
    11     4    29 1
    12    19     5 ar
    13     5    21 ar
    14     5    30 1
    15    10     6 1
    16     7     6 1
    17     6    31 1
    18     6    32 1
    19     7    11 1
    20     7    33 1
    21     7    34 1
    22    12     8 1
    23     8     9 1
    24     8    51 1
    25     8    56 1
    26     9    13 1
    27     9    35 1
    28     9    36 1
    29    10    50 1
    30    10    37 1
    31    10    38 1
    32    26    11 1
    33    11    39 1
    34    11    40 1
    35    12    26 1
    36    12    41 1
    37    12    42 1
    38    26    13 1
    39    13    43 1
    40    13    44 1
    41    47    14 1
    42    23    14 1
    43    14    45 1
    44    14    46 1
    45    22    15 2
    46    16    15 1
    47    50    18 1
    48    50    52 1
    49    18    54 1
    50    54    24 1
    51    54    57 1
    52    22    47 1
    53    24    16 1
    54    17    25 1
    55    20    23 ar
    56    23    21 ar
    57    25    22 1
    58    25    24 2
    59    53     1 1
@<TRIPOS>SUBSTRUCTURE
     1 BFF         1 TEMP              0 ****  ****    0 ROOT
