@<TRIPOS>MOLECULE
molecule
   39    40     1     0     0
SMALL
bcc


@<TRIPOS>ATOM
      1 C4           0.0000     0.0000     0.0000 ca         1 BFG      -0.071800
      2 C5           1.3830     0.0000     0.0000 ca         1 BFG      -0.117750
      3 C6           2.0750     0.0000     1.1960 ca         1 BFG      -0.126500
      4 C7          -0.7540    -0.0000    -1.3040 c3         1 BFG       0.039900
      5 C8          -0.5470     1.3170    -2.0050 ca         1 BFG      -0.071800
      6 C10          0.8890     2.8570    -3.1440 ca         1 BFG      -0.126500
      7 C13         -1.6050     2.1960    -2.1500 ca         1 BFG      -0.117750
      8 C15         -0.5550    -2.4600    -1.5470 c          1 BFG       0.658100
      9 C2           0.0020    -0.0100     2.3950 ca         1 BFG      -0.126500
     10 C3          -0.6910    -0.0050     1.1980 ca         1 BFG      -0.117750
     11 C14         -0.2380    -1.1350    -2.1910 c3         1 BFG      -0.149400
     12 N17         -0.1930    -3.6080    -2.1520 ns         1 BFG      -0.592900
     13 C18         -0.5020    -4.8970    -1.5250 c3         1 BFG       0.130000
     14 C19          0.0140    -6.0310    -2.4130 c3         1 BFG       0.015700
     15 S20         -0.3680    -7.6260    -1.6370 sh         1 BFG      -0.403900
     16 O16         -1.1370    -2.4930    -0.4830 o          1 BFG      -0.596100
     17 C12         -1.4140     3.4060    -2.7920 ca         1 BFG      -0.126500
     18 C11         -0.1680     3.7360    -3.2890 ca         1 BFG      -0.129000
     19 C9           0.7000     1.6500    -2.4970 ca         1 BFG      -0.117750
     20 C1           1.3840     0.0020     2.3940 ca         1 BFG      -0.129000
     21 H5           1.9240    -0.0020    -0.9380 ha         1 BFG       0.129000
     22 H6           3.1580     0.0050     1.1960 ha         1 BFG       0.128250
     23 H7          -1.8100    -0.1450    -1.1110 hc         1 BFG       0.078700
     24 H10          1.8670     3.1170    -3.5320 ha         1 BFG       0.128250
     25 H13         -2.5820     1.9380    -1.7600 ha         1 BFG       0.129000
     26 H2          -0.5390    -0.0110     3.3330 ha         1 BFG       0.128250
     27 H3          -1.7740    -0.0100     1.1990 ha         1 BFG       0.129000
     28 H14          0.8340    -1.0400    -2.3130 hc         1 BFG       0.064200
     29 H14A        -0.7170    -1.0810    -3.1610 hc         1 BFG       0.064200
     30 HN17         0.2760    -3.5810    -3.0360 hn         1 BFG       0.309500
     31 H18         -1.5740    -4.9920    -1.4040 h1         1 BFG       0.069200
     32 H18A        -0.0220    -4.9500    -0.5550 h1         1 BFG       0.069200
     33 H19          1.0860    -5.9360    -2.5340 h1         1 BFG       0.058200
     34 H19A        -0.4650    -5.9780    -3.3830 h1         1 BFG       0.058200
     35 HS20         0.0800    -8.6110    -2.4060 hs         1 BFG       0.219800
     36 H12         -2.2430     4.0950    -2.9050 ha         1 BFG       0.128250
     37 H11         -0.0200     4.6830    -3.7940 ha         1 BFG       0.127500
     38 H9           1.5290     0.9610    -2.3840 ha         1 BFG       0.129000
     39 H1           1.9260     0.0000     3.3320 ha         1 BFG       0.127500
@<TRIPOS>BOND
     1     1     2 ar
     2     1     4 1
     3     1    10 ar
     4     2     3 ar
     5     3    20 ar
     6     4     5 1
     7     4    11 1
     8     5     7 ar
     9     5    19 ar
    10     6    18 ar
    11     6    19 ar
    12     7    17 ar
    13     8    11 1
    14     8    12 1
    15     8    16 2
    16     9    10 ar
    17     9    20 ar
    18    12    13 1
    19    13    14 1
    20    14    15 1
    21    17    18 ar
    22     2    21 1
    23     3    22 1
    24     4    23 1
    25     6    24 1
    26     7    25 1
    27     9    26 1
    28    10    27 1
    29    11    28 1
    30    11    29 1
    31    12    30 1
    32    13    31 1
    33    13    32 1
    34    14    33 1
    35    14    34 1
    36    15    35 1
    37    17    36 1
    38    18    37 1
    39    19    38 1
    40    20    39 1
@<TRIPOS>SUBSTRUCTURE
     1 BFG         1 TEMP              0 ****  ****    0 ROOT
