@<TRIPOS>MOLECULE
BFH
   29    31     1     0     0
SMALL
bcc


@<TRIPOS>ATOM
      1 O1          0.1380    0.8980   -0.2460 o         1 BFH     -0.842300
      2 C2          1.1710    0.2340    0.0810 c         1 BFH      0.903600
      3 O3          1.4290   -0.1290    1.2560 o         1 BFH     -0.842300
      4 C4          2.0930   -0.1670   -1.1050 c3        1 BFH     -0.118700
      5 N5          3.5180   -0.0740   -0.9310 na        1 BFH      0.042600
      6 C6          4.3870   -1.1730   -1.0010 cc        1 BFH     -0.081300
      7 C7          5.7060   -0.7440   -0.7740 cd        1 BFH     -0.221200
      8 C8          5.6680    0.6700   -0.5900 ca        1 BFH     -0.135800
      9 C9          6.6810    1.6170   -0.3750 ca        1 BFH     -0.066000
     10 C10         6.3610    2.9470   -0.3020 ca        1 BFH     -0.212000
     11 C11         5.0120    3.3890   -0.4360 ca        1 BFH     -0.036000
     12 C12         4.7270    4.7780   -0.3870 ca        1 BFH     -0.153000
     13 C13         3.4400    5.2450   -0.5160 ca        1 BFH     -0.160000
     14 C14         2.3820    4.3310   -0.6900 ca        1 BFH     -0.172000
     15 C15         2.6270    2.9750   -0.7390 ca        1 BFH     -0.093000
     16 C16         3.9440    2.4630   -0.6250 ca        1 BFH      0.004000
     17 C17         4.2790    1.0750   -0.7020 ca        1 BFH     -0.058200
     18 C18         4.0410   -2.6010   -1.3890 c         1 BFH      0.934800
     19 O19         4.7900   -3.5120   -0.9340 o         1 BFH     -0.833300
     20 O20         3.0910   -2.8120   -2.1940 o         1 BFH     -0.833300
     21 H4          1.8500   -1.2450   -1.3460 h1        1 BFH      0.071200
     22 H4A         1.8130    0.4650   -1.9960 h1        1 BFH      0.071200
     23 H7          6.5740   -1.3920   -0.7460 ha        1 BFH      0.143000
     24 H9          7.7200    1.2750   -0.2740 ha        1 BFH      0.099000
     25 H10         7.1410    3.7040   -0.1390 ha        1 BFH      0.091000
     26 H12         5.5620    5.4790   -0.2410 ha        1 BFH      0.094000
     27 H13         3.2270    6.3220   -0.4770 ha        1 BFH      0.091000
     28 H14         1.3520    4.7050   -0.7740 ha        1 BFH      0.113000
     29 H15         1.7700    2.2810   -0.8420 ha        1 BFH      0.197000
@<TRIPOS>BOND
     1    1    2 1   
     2    2    3 1   
     3    2    4 1   
     4    4    5 1   
     5    4   21 1   
     6    4   22 1   
     7    5    6 1   
     8    5   17 1   
     9    6    7 2   
    10    6   18 1   
    11    7    8 1   
    12    7   23 1   
    13    8    9 ar  
    14    8   17 ar  
    15    9   10 ar  
    16    9   24 1   
    17   10   11 ar  
    18   10   25 1   
    19   11   12 ar  
    20   11   16 ar  
    21   12   13 ar  
    22   12   26 1   
    23   13   14 ar  
    24   13   27 1   
    25   14   15 ar  
    26   14   28 1   
    27   15   16 ar  
    28   15   29 1   
    29   16   17 ar  
    30   18   19 1   
    31   18   20 1   
@<TRIPOS>SUBSTRUCTURE
     1 BFH         1 TEMP              0 ****  ****    0 ROOT
