@<TRIPOS>MOLECULE
molecule
   29    31     1     0     0
SMALL
bcc


@<TRIPOS>ATOM
      1 O1           0.0000     0.0000     0.0000 o          1 BFH      -0.849300
      2 C2           1.3420     0.0000     0.0000 c          1 BFH       0.894600
      3 O3           1.9450     0.0000     1.0460 o          1 BFH      -0.849300
      4 C4           2.0960    -0.0010    -1.3050 c3         1 BFH      -0.092700
      5 N5           3.5370    -0.0010    -1.0360 na         1 BFH       0.054600
      6 C6           4.3460    -1.1180    -1.0030 cc         1 BFH      -0.057300
      7 C7           5.6220    -0.7290    -0.7240 cd         1 BFH      -0.213200
      8 C8           5.6170     0.6770    -0.5780 ca         1 BFH      -0.147800
      9 C9           6.6330     1.6140    -0.2910 ca         1 BFH      -0.058000
     10 C10          6.3550     2.9350    -0.2050 ca         1 BFH      -0.219000
     11 C11          5.0360     3.4020    -0.4010 ca         1 BFH      -0.019000
     12 C12          4.7370     4.7700    -0.3130 ca         1 BFH      -0.146000
     13 C13          3.4570     5.1970    -0.5070 ca         1 BFH      -0.159000
     14 C14          2.4380     4.2930    -0.7910 ca         1 BFH      -0.169000
     15 C15          2.6930     2.9560    -0.8830 ca         1 BFH      -0.093000
     16 C16          3.9990     2.4850    -0.6900 ca         1 BFH       0.010000
     17 C17          4.3000     1.1070    -0.7850 ca         1 BFH      -0.058200
     18 C18          3.9050    -2.5000    -1.2280 c          1 BFH       0.906800
     19 O19          4.7080    -3.4110    -1.1750 o          1 BFH      -0.837800
     20 O20          2.6090    -2.7580    -1.4960 o          1 BFH      -0.837800
     21 H4           1.8340    -0.8850    -1.8720 h1         1 BFH       0.074200
     22 H4A          1.8340     0.8830    -1.8730 h1         1 BFH       0.074200
     23 H7           6.4830    -1.3790    -0.6320 ha         1 BFH       0.139000
     24 H9           7.6580     1.2990    -0.1330 ha         1 BFH       0.094000
     25 H10          7.2260     3.5370     0.0200 ha         1 BFH       0.093000
     26 H12          5.5210     5.4850    -0.0930 ha         1 BFH       0.098000
     27 H13          3.2290     6.2540    -0.4390 ha         1 BFH       0.089000
     28 H14          1.4280     4.6560    -0.9410 ha         1 BFH       0.107000
     29 H15          1.8910     2.2630    -1.1050 ha         1 BFH       0.172000
@<TRIPOS>BOND
     1     2     1 1
     2     3     2 1
     3     2     4 1
     4     5     4 1
     5     4    21 1
     6     4    22 1
     7     6     5 1
     8    17     5 1
     9     7     6 2
    10    18     6 1
    11     7     8 1
    12     7    23 1
    13     9     8 ar
    14     8    17 ar
    15     9    10 ar
    16     9    24 1
    17    10    11 ar
    18    10    25 1
    19    11    16 ar
    20    11    12 ar
    21    12    13 ar
    22    12    26 1
    23    13    14 ar
    24    13    27 1
    25    15    14 ar
    26    14    28 1
    27    16    15 ar
    28    15    29 1
    29    17    16 ar
    30    19    18 1
    31    18    20 1
@<TRIPOS>SUBSTRUCTURE
     1 BFH         1 TEMP              0 ****  ****    0 ROOT
