@<TRIPOS>MOLECULE
BFI
   39    42     1     0     0
SMALL
bcc


@<TRIPOS>ATOM
      1 C2           0.0000     0.0000     0.0000 ca         1 BFI      -0.140000
      2 C3           1.3820     0.0070     2.4150 ca         1 BFI       0.010000
      3 C4           1.3730     0.0000     0.0000 ca         1 BFI      -0.015300
      4 C5          -0.6890     0.0120     1.2060 ca         1 BFI       0.150900
      5 C6           0.0040     0.0110     2.4070 ca         1 BFI      -0.142000
      6 C7           2.0820     0.0000     1.2090 ca         1 BFI      -0.166600
      7 C8           2.1720    -0.0060    -1.2710 c3         1 BFI      -0.192700
      8 F9          -2.0410     0.0180     1.2080 f          1 BFI      -0.118900
      9 C11          3.5540    -0.0080     1.1810 c          1 BFI       0.651100
     10 N14          1.1680    -0.7310    -3.2320 ns         1 BFI      -0.148500
     11 O16          4.1570    -0.0060     2.2370 o          1 BFI      -0.647500
     12 N17          4.2560    -0.0190     0.0390 n          1 BFI      -0.090400
     13 C18          1.7620     1.2180    -2.1010 c3         1 BFI      -0.109400
     14 C21          1.1280     0.6050    -3.3350 c          1 BFI       0.619500
     15 C22          3.6740    -0.0190    -1.1760 c          1 BFI       0.651500
     16 C23          5.7180    -0.0310     0.1170 c3         1 BFI       0.088300
     17 C25          6.2240     1.3780     0.2880 ca         1 BFI      -0.160300
     18 C27          7.1530     3.9640     0.6030 ca         1 BFI       0.062100
     19 C28          6.5760     1.8380     1.5420 ca         1 BFI      -0.042000
     20 C29          6.3410     2.2100    -0.8120 ca         1 BFI       0.129900
     21 C30          6.8020     3.5050    -0.6530 ca         1 BFI      -0.123000
     22 C31          7.0400     3.1300     1.7000 ca         1 BFI      -0.101000
     23 F33          5.9970     1.7610    -2.0390 f          1 BFI      -0.115900
     24 Br36         7.7890     5.7320     0.8200 br         1 BFI      -0.112100
     25 C39          1.7370    -1.1820    -2.1050 c          1 BFI       0.641500
     26 H2          -0.5440     0.0000    -0.9370 ha         1 BFI       0.127000
     27 H3           1.9200     0.0070     3.3560 ha         1 BFI       0.133000
     28 H6          -0.5410     0.0200     3.3430 ha         1 BFI       0.129000
     29 H14          0.8040    -1.3400    -3.9380 hn         1 BFI       0.200500
     30 H181         1.0400     1.8190    -1.5620 hc         1 BFI       0.069200
     31 H182         2.6320     1.8030    -2.3720 hc         1 BFI       0.069200
     32 H231         6.0300    -0.6310     0.9630 h1         1 BFI       0.060700
     33 H232         6.1250    -0.4520    -0.7940 h1         1 BFI       0.060700
     34 H28          6.4880     1.1860     2.4020 ha         1 BFI       0.131000
     35 H30          6.8920     4.1580    -1.5130 ha         1 BFI       0.135000
     36 H31          7.3160     3.4900     2.6840 ha         1 BFI       0.123000
     37 O13          4.3530    -0.0310    -2.1800 o          1 BFI      -0.608500
     38 O15          0.6610     1.2250    -4.2660 o          1 BFI      -0.605500
     39 O37          1.8790    -2.3480    -1.8060 o          1 BFI      -0.602500
@<TRIPOS>BOND
     1     1     3 ar  
     2     1     4 ar  
     3     1    26 1   
     4     2     5 ar  
     5     2     6 ar  
     6     2    27 1   
     7     3     6 ar  
     8     3     7 1   
     9     4     5 ar  
    10     4     8 1   
    11     5    28 1   
    12     6     9 1   
    13     7    13 1   
    14     7    15 1   
    15     7    25 1   
    16     9    11 2   
    17     9    12 1   
    18    10    14 1   
    19    10    25 1   
    20    10    29 1   
    21    12    15 1   
    22    12    16 1   
    23    13    14 1   
    24    13    30 1   
    25    13    31 1   
    26    14    38 2   
    27    15    37 2   
    28    16    17 1   
    29    16    32 1   
    30    16    33 1   
    31    17    19 ar  
    32    17    20 ar  
    33    18    21 ar  
    34    18    22 ar  
    35    18    24 1   
    36    19    22 ar  
    37    19    34 1   
    38    20    21 ar  
    39    20    23 1   
    40    21    35 1   
    41    22    36 1   
    42    25    39 2   
@<TRIPOS>SUBSTRUCTURE
     1 BFI         1 TEMP              0 ****  ****    0 ROOT
