@<TRIPOS>MOLECULE
molecule
   64    67     1     0     0
SMALL
bcc


@<TRIPOS>ATOM
      1 C1           0.0000     0.0000     0.0000 ca         1 BFK      -0.442900
      2 C2           1.3820     0.0000     0.0000 ca         1 BFK       0.531200
      3 C3           1.3730    -0.0010     2.3050 ca         1 BFK       0.958900
      4 C7          -2.8000    -0.9650     4.7400 ca         1 BFK      -0.118000
      5 C8          -4.0080    -0.3220     4.9370 ca         1 BFK      -0.127000
      6 C9          -4.5690     0.4300     3.9210 ca         1 BFK      -0.069300
      7 C10         -3.9230     0.5440     2.7060 ca         1 BFK      -0.144000
      8 C11         -5.8870     1.1280     4.1410 c3         1 BFK       0.189700
      9 C12          3.4790    -0.1160     3.4690 ca         1 BFK       0.160600
     10 C13          4.2460     0.5410     4.4220 ca         1 BFK      -0.174000
     11 C14          5.6300     0.4240     4.3950 ca         1 BFK       0.200600
     12 C15          6.2410    -0.3500     3.4160 ca         1 BFK      -0.077000
     13 C16          5.4750    -1.0010     2.4700 ca         1 BFK      -0.265500
     14 C19          6.7960    -0.7640     6.5540 c3         1 BFK       0.240800
     15 C20          7.6620    -0.1220     7.6400 c3         1 BFK       0.149300
     16 C21          6.0670     1.6870     7.8420 c3         1 BFK       0.149300
     17 C22          5.2010     1.0460     6.7560 c3         1 BFK       0.240800
     18 O2           5.3370    -1.9680     0.1440 o          1 BFK      -0.616300
     19 S            6.2550    -1.9800     1.2290 sy         1 BFK       1.193300
     20 O1           7.5510    -1.4130     1.0980 o          1 BFK      -0.616300
     21 C18          6.3570    -3.6390     1.9580 c3         1 BFK      -0.228300
     22 N4           6.0580     0.2850     5.8360 nh         1 BFK      -0.787000
     23 N5           6.8060     0.6390     8.5600 n3         1 BFK      -0.733600
     24 C23          7.5230     1.2760     9.6720 c3         1 BFK       0.153100
     25 C17          4.0980    -0.8920     2.4950 ca         1 BFK      -0.047000
     26 N3           2.0870    -0.0010     3.4920 nu         1 BFK      -0.758300
     27 N            2.0300     0.0000     1.1550 nb         1 BFK      -0.814000
     28 N1           0.0480     0.0050     2.3490 nb         1 BFK      -0.847000
     29 C4          -0.6660     0.0060     1.2270 ca         1 BFK       0.759200
     30 C           -0.7700     0.0000    -1.2950 c3         1 BFK      -0.028800
     31 N2          -2.0510     0.0130     1.2760 nu         1 BFK      -0.764300
     32 C5          -2.7080    -0.1000     2.5050 ca         1 BFK       0.151600
     33 O           -5.6520     2.4380     4.6590 oh         1 BFK      -0.601800
     34 C6          -2.1480    -0.8560     3.5270 ca         1 BFK      -0.122000
     35 H1           1.9290    -0.0020    -0.9350 h4         1 BFK       0.039100
     36 H2          -2.3640    -1.5540     5.5380 ha         1 BFK       0.131000
     37 H3          -4.5180    -0.4090     5.8890 ha         1 BFK       0.131000
     38 H4          -4.3620     1.1330     1.9110 ha         1 BFK       0.132000
     39 H5          -6.4180     1.2020     3.2000 h1         1 BFK       0.024200
     40 H6          -6.4820     0.5620     4.8480 h1         1 BFK       0.024200
     41 H7           3.7670     1.1440     5.1830 ha         1 BFK       0.152000
     42 H8           7.3200    -0.4420     3.3940 ha         1 BFK       0.157000
     43 H9           7.4290    -1.2990     5.8570 h1         1 BFK       0.042700
     44 H10          6.0930    -1.4490     7.0120 h1         1 BFK       0.042700
     45 H11          8.3800     0.5470     7.1800 h1         1 BFK       0.041450
     46 H12          8.1830    -0.8970     8.1900 h1         1 BFK       0.041450
     47 H13          5.4340     2.2230     8.5390 h1         1 BFK       0.041450
     48 H14          6.7700     2.3730     7.3840 h1         1 BFK       0.041450
     49 H15          4.4830     0.3770     7.2160 h1         1 BFK       0.042700
     50 H16          4.6800     1.8200     6.2060 h1         1 BFK       0.042700
     51 H17          5.4050    -3.8940     2.4080 h1         1 BFK       0.097367
     52 H18          6.5960    -4.3590     1.1860 h1         1 BFK       0.097367
     53 H19          7.1290    -3.6520     2.7170 h1         1 BFK       0.097367
     54 H21          8.0470     0.5200    10.2440 h1         1 BFK       0.032033
     55 H22          8.2370     1.9900     9.2790 h1         1 BFK       0.032033
     56 H23          6.8150     1.7870    10.3120 h1         1 BFK       0.032033
     57 H24          3.5000    -1.4050     1.7520 ha         1 BFK       0.178000
     58 H25          1.6030     0.0570     4.3660 hn         1 BFK       0.467800
     59 H26         -0.0770     0.0160    -2.1270 hc         1 BFK       0.040033
     60 H27         -1.3820    -0.8920    -1.3510 hc         1 BFK       0.040033
     61 H28         -1.4050     0.8770    -1.3370 hc         1 BFK       0.040033
     62 H29         -2.5810     0.0780     0.4300 hn         1 BFK       0.461800
     63 H30         -6.4760     2.8730     4.8010 ho         1 BFK       0.401000
     64 H31         -1.2010    -1.3590     3.3730 ha         1 BFK       0.158000
@<TRIPOS>BOND
     1    20    19 2
     2    18    19 2
     3    19    21 1
     4    19    13 1
     5    13    12 ar
     6    13    25 ar
     7    12    11 ar
     8    25     9 ar
     9    17    16 1
    10    17    22 1
    11    11    10 ar
    12    11    22 1
    13     9    10 ar
    14     9    26 1
    15    16    23 1
    16    22    14 1
    17    26     3 1
    18     4    34 ar
    19     4     5 ar
    20    34    32 ar
    21     3    28 ar
    22     3    27 ar
    23    28    29 ar
    24    27     2 ar
    25     5     6 ar
    26    23    24 1
    27    23    15 1
    28    14    15 1
    29     2     1 ar
    30    29    31 1
    31    29     1 ar
    32    32    31 1
    33    32     7 ar
    34     1    30 1
    35     6     7 ar
    36     6     8 1
    37     8    33 1
    38     2    35 1
    39     4    36 1
    40     5    37 1
    41     7    38 1
    42     8    39 1
    43     8    40 1
    44    10    41 1
    45    12    42 1
    46    14    43 1
    47    14    44 1
    48    15    45 1
    49    15    46 1
    50    16    47 1
    51    16    48 1
    52    17    49 1
    53    17    50 1
    54    21    51 1
    55    21    52 1
    56    21    53 1
    57    24    54 1
    58    24    55 1
    59    24    56 1
    60    25    57 1
    61    26    58 1
    62    30    59 1
    63    30    60 1
    64    30    61 1
    65    31    62 1
    66    33    63 1
    67    34    64 1
@<TRIPOS>SUBSTRUCTURE
     1 BFK         1 TEMP              0 ****  ****    0 ROOT
