@<TRIPOS>MOLECULE
molecule
   30    31     1     0     0
SMALL
bcc


@<TRIPOS>ATOM
      1 C1           0.0000     0.0000     0.0000 ca         1 BFL      -0.121500
      2 C2          -4.9470     0.0250     1.2270 ca         1 BFL      -0.154000
      3 C3          -4.2590     0.7830     0.2970 ca         1 BFL      -0.140000
      4 C4          -2.8790     0.7830     0.2860 ca         1 BFL      -0.125500
      5 C5           3.5820    -0.0060     1.1900 c3         1 BFL      -0.145400
      6 C6           4.0760    -1.2430     0.4850 c          1 BFL       0.895600
      7 C7           4.0930     1.2370     0.4580 c3         1 BFL      -0.059100
      8 C8           1.3790     0.0000     0.0000 ca         1 BFL      -0.116500
      9 C9           2.0740     0.0000     1.1960 ca         1 BFL      -0.002300
     10 C10          1.3900     0.0110     2.3980 ca         1 BFL      -0.116500
     11 C11          0.0100     0.0150     2.4110 ca         1 BFL      -0.121500
     12 C12         -0.6950     0.0100     1.2080 cp         1 BFL      -0.090000
     13 C13         -2.1780     0.0150     1.2150 cp         1 BFL       0.015000
     14 C14         -2.8760    -0.7510     2.1470 ca         1 BFL      -0.125500
     15 C15         -4.2560    -0.7370     2.1520 ca         1 BFL      -0.140000
     16 O1           5.3940    -1.4600     0.3570 o          1 BFL      -0.841300
     17 O2           3.2860    -2.0380     0.0340 o          1 BFL      -0.841300
     18 H1          -0.5420    -0.0020    -0.9380 ha         1 BFL       0.114000
     19 H4          -2.5640     1.5810    -0.3750 ha         1 BFL       0.136000
     20 H5           3.9470    -0.0000     2.2090 hc         1 BFL       0.046700
     21 H71          3.5260     2.1030     0.7780 hc         1 BFL       0.022367
     22 H72          5.1410     1.3860     0.6870 hc         1 BFL       0.022367
     23 H73          3.9720     1.1020    -0.6100 hc         1 BFL       0.022367
     24 H8           1.9200    -0.0080    -0.9390 ha         1 BFL       0.134500
     25 H10          1.9390     0.0150     3.3320 ha         1 BFL       0.134500
     26 H11         -0.5240     0.0230     3.3530 ha         1 BFL       0.114000
     27 H14         -2.3380    -1.4100     2.8170 ha         1 BFL       0.136000
     28 H15         -4.8230    -1.3300     2.8600 ha         1 BFL       0.117000
     29 H2          -6.0300     0.0290     1.2310 ha         1 BFL       0.113000
     30 H3          -4.8040     1.3790    -0.4250 ha         1 BFL       0.117000
@<TRIPOS>BOND
     1     1     8 ar
     2     1    12 ar
     3     1    18 1
     4     2     3 ar
     5     2    15 ar
     6     2    29 1
     7     3     4 ar
     8     3    30 1
     9     4    13 ar
    10     4    19 1
    11     5     6 1
    12     5     7 1
    13     5     9 1
    14     5    20 1
    15     6    16 1
    16     6    17 1
    17     7    21 1
    18     7    22 1
    19     7    23 1
    20     8     9 ar
    21     8    24 1
    22     9    10 ar
    23    10    11 ar
    24    10    25 1
    25    11    12 ar
    26    11    26 1
    27    12    13 1
    28    13    14 ar
    29    14    15 ar
    30    14    27 1
    31    15    28 1
@<TRIPOS>SUBSTRUCTURE
     1 BFL         1 TEMP              0 ****  ****    0 ROOT
