@<TRIPOS>MOLECULE
BFL
   30    31     1     0     0
SMALL
bcc


@<TRIPOS>ATOM
      1 C1         -0.0320   -0.1770   -0.0000 ca        1 BFL     -0.124000
      2 C2         -4.9870   -0.0270    1.3170 ca        1 BFL     -0.152000
      3 C3         -4.3100    0.5980    0.2700 ca        1 BFL     -0.135000
      4 C4         -2.9170    0.5960    0.2350 ca        1 BFL     -0.130500
      5 C5          3.5890    0.0300    1.1050 c3        1 BFL     -0.171400
      6 C6          4.1780   -1.1470    0.2660 c         1 BFL      0.923600
      7 C7          4.0790    1.3380    0.5220 c3        1 BFL     -0.061100
      8 C8          1.3570   -0.1690   -0.0350 ca        1 BFL     -0.138500
      9 C9          2.1010   -0.0080    1.1450 ca        1 BFL      0.000700
     10 C10         1.4140    0.1240    2.3590 ca        1 BFL     -0.138500
     11 C11         0.0220    0.1110    2.3960 ca        1 BFL     -0.124000
     12 C12        -0.7200   -0.0310    1.2160 cp        1 BFL     -0.094000
     13 C13        -2.1790   -0.0320    1.2500 cp        1 BFL      0.005000
     14 C14        -2.8700   -0.6590    2.2980 ca        1 BFL     -0.130500
     15 C15        -4.2630   -0.6550    2.3300 ca        1 BFL     -0.135000
     16 O1          4.8540   -2.0080    0.8890 o         1 BFL     -0.834300
     17 O2          3.9710   -1.1580   -0.9810 o         1 BFL     -0.834300
     18 H1         -0.6000   -0.3160   -0.9320 ha        1 BFL      0.114000
     19 H4         -2.3860    1.0930   -0.5910 ha        1 BFL      0.136000
     20 H5          3.9880   -0.0790    2.1520 hc        1 BFL      0.045700
     21 H71         5.1930    1.3770    0.5780 hc        1 BFL      0.021367
     22 H72         3.6610    2.2120    1.0770 hc        1 BFL      0.021367
     23 H73         3.7770    1.4080   -0.5520 hc        1 BFL      0.021367
     24 H8          1.9120   -0.3250   -0.9800 ha        1 BFL      0.156000
     25 H10         1.9810    0.2320    3.2950 ha        1 BFL      0.156000
     26 H11        -0.5000    0.2220    3.3570 ha        1 BFL      0.114000
     27 H14        -2.3030   -1.1640    3.0940 ha        1 BFL      0.136000
     28 H15        -4.7920   -1.1530    3.1550 ha        1 BFL      0.119000
     29 H2         -6.0850   -0.0250    1.3430 ha        1 BFL      0.117000
     30 H3         -4.8760    1.0940   -0.5310 ha        1 BFL      0.119000
@<TRIPOS>BOND
     1    1    8 ar  
     2    1   12 ar  
     3    1   18 1   
     4    2    3 ar  
     5    2   15 ar  
     6    2   29 1   
     7    3    4 ar  
     8    3   30 1   
     9    4   13 ar  
    10    4   19 1   
    11    5    6 1   
    12    5    7 1   
    13    5    9 1   
    14    5   20 1   
    15    6   16 1   
    16    6   17 1   
    17    7   21 1   
    18    7   22 1   
    19    7   23 1   
    20    8    9 ar  
    21    8   24 1   
    22    9   10 ar  
    23   10   11 ar  
    24   10   25 1   
    25   11   12 ar  
    26   11   26 1   
    27   12   13 1   
    28   13   14 ar  
    29   14   15 ar  
    30   14   27 1   
    31   15   28 1   
@<TRIPOS>SUBSTRUCTURE
     1 BFL         1 TEMP              0 ****  ****    0 ROOT
