@<TRIPOS>MOLECULE
molecule
   14    13     1     0     0
SMALL
bcc


@<TRIPOS>ATOM
      1 O01          0.0000     0.0000     0.0000 oh         1 BFM      -0.573800
      2 C02          1.4290     0.0000     0.0000 c3         1 BFM      -0.045200
      3 C03          1.9320     0.0000     1.4200 c          1 BFM       0.860600
      4 O04          1.2580    -0.6670     2.3710 o          1 BFM      -0.785300
      5 O05          2.9410     0.6000     1.7040 o          1 BFM      -0.785300
      6 C06          1.9390    -1.2490    -0.7220 c3         1 BFM       0.620400
      7 F07          1.4720    -1.2480    -2.0410 f          1 BFM      -0.223800
      8 F08          3.3380    -1.2480    -0.7220 f          1 BFM      -0.223800
      9 F09          1.4740    -2.3910    -0.0630 f          1 BFM      -0.223800
     10 C10          1.9380     1.2500    -0.7210 c3         1 BFM       0.620400
     11 F11          1.4710     1.2500    -2.0400 f          1 BFM      -0.223800
     12 F12          1.4710     2.3920    -0.0610 f          1 BFM      -0.223800
     13 F13          3.3370     1.2500    -0.7220 f          1 BFM      -0.223800
     14 H1          -0.3140     0.5860     0.6680 ho         1 BFM       0.431000
@<TRIPOS>BOND
     1     1     2 1
     2     8     6 1
     3     9     6 1
     4     6     2 1
     5     6     7 1
     6     2     3 1
     7     2    10 1
     8     5     3 1
     9    11    10 1
    10     3     4 1
    11    10    12 1
    12    10    13 1
    13     1    14 1
@<TRIPOS>SUBSTRUCTURE
     1 BFM         1 TEMP              0 ****  ****    0 ROOT
