@<TRIPOS>MOLECULE
molecule
   52    53     1     0     0
SMALL
bcc


@<TRIPOS>ATOM
      1 O2           1.4290     0.0000     0.0000 oh         1 BFN      -0.653800
      2 C1          -0.5030     0.0000     1.4200 c          1 BFN       0.880600
      3 F1          -1.9090     1.2770    -0.6790 f          1 BFN      -0.218300
      4 C2           0.0000     0.0000     0.0000 c3         1 BFN       0.211600
      5 C3          -0.5100     1.2490    -0.7230 c3         1 BFN       0.143600
      6 C4          -0.0450     1.2120    -2.1820 c3         1 BFN       0.099100
      7 O4          -0.5790     2.3370    -2.8830 oh         1 BFN      -0.579800
      8 C5          -0.5460    -0.0820    -2.8330 c3         1 BFN       0.088700
      9 N5          -0.0460    -0.1650    -4.2070 ns         1 BFN      -0.586900
     10 C6          -0.0350    -1.2800    -2.0280 c3         1 BFN       0.133100
     11 O6          -0.4760    -1.1670    -0.6740 os         1 BFN      -0.361600
     12 C7          -0.5800    -2.5740    -2.6370 c3         1 BFN       0.164100
     13 O7          -2.0060    -2.5020    -2.7080 oh         1 BFN      -0.573800
     14 C8          -0.1720    -3.7610    -1.7610 c3         1 BFN       0.108100
     15 O8           1.2540    -3.8320    -1.6910 oh         1 BFN      -0.612800
     16 C9          -0.7170    -5.0540    -2.3710 c3         1 BFN       0.088000
     17 N9          -0.4300    -6.1750    -1.4730 ns         1 BFN      -0.571900
     18 C10         -0.7150     0.4440    -5.2060 c          1 BFN       0.649100
     19 O10         -1.7320     1.0600    -4.9670 o          1 BFN      -0.578100
     20 C11         -0.1990     0.3590    -6.6190 c3         1 BFN      -0.174100
     21 C12         -0.8200    -7.4220    -1.8050 c          1 BFN       0.672700
     22 O12         -1.4100    -7.6160    -2.8490 o          1 BFN      -0.620100
     23 C13         -0.5290    -8.5530    -0.8980 ca         1 BFN      -0.140600
     24 C14         -0.9320    -9.8460    -1.2400 ca         1 BFN      -0.086000
     25 C15         -0.6570   -10.8970    -0.3890 ca         1 BFN      -0.141000
     26 C16          0.0150   -10.6730     0.7980 ca         1 BFN      -0.113000
     27 C17          0.4170    -9.3940     1.1420 ca         1 BFN      -0.141000
     28 C18          0.1530    -8.3350     0.2990 ca         1 BFN      -0.086000
     29 O1A         -0.2640     1.0540     2.2160 o          1 BFN      -0.806300
     30 O1B         -1.1220    -0.9480     1.8430 o          1 BFN      -0.806300
     31 HO2          1.7430     0.1430     0.8770 ho         1 BFN       0.434000
     32 H3          -0.1110     2.1320    -0.2400 h1         1 BFN       0.077700
     33 H4           1.0370     1.2370    -2.2160 h1         1 BFN       0.041700
     34 HO4         -0.0080     3.0790    -2.7670 ho         1 BFN       0.386000
     35 H5          -1.6300    -0.0870    -2.8370 h1         1 BFN       0.124700
     36 HN5          0.7990    -0.6640    -4.4030 hn         1 BFN       0.301500
     37 H6           1.0480    -1.2930    -2.0530 h1         1 BFN       0.058700
     38 H7          -0.1750    -2.7030    -3.6330 h1         1 BFN       0.033700
     39 HO7         -2.2930    -2.7860    -3.5590 ho         1 BFN       0.393000
     40 H8          -0.5770    -3.6320    -0.7650 h1         1 BFN       0.093700
     41 HO8          1.5160    -4.0180    -0.8040 ho         1 BFN       0.409000
     42 H9          -0.2440    -5.2300    -3.3290 h1         1 BFN       0.059200
     43 H9A         -1.7880    -4.9660    -2.5080 h1         1 BFN       0.059200
     44 HN9          0.0530    -6.0150    -0.6110 hn         1 BFN       0.315500
     45 H11         -0.1690    -0.6780    -6.9310 hc         1 BFN       0.051367
     46 H11A         0.7980     0.7790    -6.6650 hc         1 BFN       0.051367
     47 H11B        -0.8560     0.9150    -7.2770 hc         1 BFN       0.051367
     48 H14         -1.4590   -10.0230    -2.1700 ha         1 BFN       0.143000
     49 H15         -0.9690   -11.9010    -0.6530 ha         1 BFN       0.130500
     50 H16          0.2260   -11.5020     1.4630 ha         1 BFN       0.125000
     51 H17          0.9450    -9.2260     2.0730 ha         1 BFN       0.130500
     52 H18          0.4690    -7.3340     0.5690 ha         1 BFN       0.143000
@<TRIPOS>BOND
     1     4     1 1
     2     1    31 1
     3    30     2 1
     4     2    29 1
     5     2     4 1
     6     3     5 1
     7     5     4 1
     8     4    11 1
     9     5     6 1
    10     5    32 1
    11     7     6 1
    12     6     8 1
    13     6    33 1
    14     7    34 1
    15     8     9 1
    16     8    10 1
    17     8    35 1
    18     9    18 1
    19     9    36 1
    20    11    10 1
    21    10    12 1
    22    10    37 1
    23    13    12 1
    24    12    14 1
    25    12    38 1
    26    13    39 1
    27    14    16 1
    28    14    15 1
    29    14    40 1
    30    15    41 1
    31    17    16 1
    32    16    42 1
    33    16    43 1
    34    17    21 1
    35    17    44 1
    36    19    18 2
    37    18    20 1
    38    20    45 1
    39    20    46 1
    40    20    47 1
    41    23    21 1
    42    21    22 2
    43    28    23 ar
    44    23    24 ar
    45    25    24 ar
    46    24    48 1
    47    26    25 ar
    48    25    49 1
    49    27    26 ar
    50    26    50 1
    51    27    28 ar
    52    27    51 1
    53    28    52 1
@<TRIPOS>SUBSTRUCTURE
     1 BFN         1 TEMP              0 ****  ****    0 ROOT
