@<TRIPOS>MOLECULE
molecule
   89    91     1     0     0
SMALL
bcc


@<TRIPOS>ATOM
      1 C1           0.0000     0.0000     0.0000 ca         1 BFO      -0.119000
      2 C2           1.3610     0.0000     0.0000 ca         1 BFO      -0.105000
      3 C3           2.0790     0.0000     1.1940 ca         1 BFO      -0.099300
      4 C4           3.5860    -0.0010     1.1550 c3         1 BFO       0.214700
      5 O5           4.0700     1.3670     1.1410 os         1 BFO      -0.431900
      6 C6           5.4050     1.5420     1.1050 c          1 BFO       0.752100
      7 O7           6.1440     0.5780     1.0860 o          1 BFO      -0.622000
      8 N8           5.9210     2.7880     1.0910 ns         1 BFO      -0.558900
      9 C9           7.3720     2.9790     1.0520 c3         1 BFO       0.066700
     10 C10          7.8570     2.9190    -0.3980 c3         1 BFO      -0.113100
     11 C11          7.7190     4.3220     1.6430 c          1 BFO       0.660100
     12 O12          6.8390     5.0480     2.0550 o          1 BFO      -0.603100
     13 N13          9.0060     4.7150     1.7120 ns         1 BFO      -0.565900
     14 C14          9.3420     6.0200     2.2870 c3         1 BFO       0.077700
     15 C15          9.2260     7.0820     1.2230 c          1 BFO       0.616100
     16 O16          8.8960     6.7800     0.1010 o          1 BFO      -0.540000
     17 O17          9.4890     8.3640     1.5220 os         1 BFO      -0.424900
     18 C18          9.3570     9.3320     0.4480 c3         1 BFO       0.197700
     19 C19          9.6890    10.7060     0.9680 ca         1 BFO      -0.101300
     20 C20         10.9900    11.1700     0.9130 ca         1 BFO      -0.103000
     21 C21         11.2960    12.4310     1.3900 ca         1 BFO      -0.132000
     22 C22         10.2990    13.2300     1.9200 ca         1 BFO      -0.116000
     23 C23          8.9980    12.7670     1.9740 ca         1 BFO      -0.132000
     24 C24          8.6910    11.5070     1.4940 ca         1 BFO      -0.103000
     25 C25         10.7760     5.9880     2.8200 c3         1 BFO      -0.087400
     26 C26         10.8650     5.0000     3.9840 c3         1 BFO      -0.102400
     27 C27         12.2980     4.9690     4.5190 c3         1 BFO       0.113000
     28 N28         12.3830     4.0220     5.6330 ns         1 BFO      -0.585900
     29 C29         13.5580     3.8270     6.2630 c          1 BFO       0.624100
     30 O30         14.5450     4.4350     5.9090 o          1 BFO      -0.581100
     31 C31         13.6450     2.8530     7.4100 c3         1 BFO       0.083100
     32 O32         14.9530     2.9080     7.9840 oh         1 BFO      -0.575800
     33 C33         13.3730     1.4360     6.8980 c3         1 BFO      -0.182700
     34 C34         13.3380     0.4660     8.0800 c3         1 BFO      -0.065700
     35 C35         12.2290     0.8800     9.0480 c3         1 BFO      -0.093100
     36 C36         13.0650    -0.9510     7.5680 c3         1 BFO      -0.084400
     37 C37         13.1540    -1.9390     8.7320 c3         1 BFO      -0.092100
     38 C38         14.4650     1.0280     5.9440 c          1 BFO       0.586900
     39 O39         14.1940     0.7430     4.8020 o          1 BFO      -0.525100
     40 C40          1.4400     0.0020     2.3960 ca         1 BFO      -0.085000
     41 C41          0.0350     0.0040     2.4370 ca         1 BFO      -0.041000
     42 C42         -0.6590     0.0050     3.6580 ca         1 BFO      -0.111000
     43 C43         -2.0200     0.0060     3.6590 ca         1 BFO      -0.127000
     44 C44         -2.7390     0.0040     2.4640 ca         1 BFO      -0.121000
     45 C45         -2.0990     0.0020     1.2630 ca         1 BFO      -0.118000
     46 C46         -0.6950     0.0020     1.2220 ca         1 BFO      -0.027000
     47 H1          -0.5450     0.0000    -0.9360 ha         1 BFO       0.135000
     48 H2           1.8940    -0.0010    -0.9430 ha         1 BFO       0.133000
     49 H4           3.9690    -0.5100     2.0310 h1         1 BFO       0.056200
     50 H4A          3.9230    -0.5130     0.2620 h1         1 BFO       0.056200
     51 HN8          5.3110     3.5820     1.0800 hn         1 BFO       0.347500
     52 H9           7.8550     2.1970     1.6260 h1         1 BFO       0.093700
     53 H10          7.9260     3.9240    -0.7970 hc         1 BFO       0.054700
     54 H10A         7.1560     2.3430    -0.9900 hc         1 BFO       0.054700
     55 H10B         8.8320     2.4480    -0.4340 hc         1 BFO       0.054700
     56 HN13         9.7270     4.1350     1.3320 hn         1 BFO       0.328500
     57 H14          8.6590     6.2450     3.0970 h1         1 BFO       0.109700
     58 H18         10.0370     9.0760    -0.3550 h1         1 BFO       0.057700
     59 H18A         8.3390     9.3230     0.0760 h1         1 BFO       0.057700
     60 H20         11.7710    10.5440     0.4980 ha         1 BFO       0.134500
     61 H21         12.3150    12.7940     1.3470 ha         1 BFO       0.133000
     62 H22         10.5380    14.2170     2.2950 ha         1 BFO       0.131000
     63 H23          8.2170    13.3930     2.3880 ha         1 BFO       0.133000
     64 H24          7.6710    11.1450     1.5360 ha         1 BFO       0.134500
     65 H25         11.0550     6.9770     3.1630 hc         1 BFO       0.067200
     66 H25A        11.4480     5.6770     2.0300 hc         1 BFO       0.067200
     67 H26         10.5860     4.0110     3.6410 hc         1 BFO       0.052200
     68 H26A        10.1920     5.3110     4.7740 hc         1 BFO       0.052200
     69 H27         12.5770     5.9570     4.8630 h1         1 BFO       0.057700
     70 H27A        12.9710     4.6580     3.7290 h1         1 BFO       0.057700
     71 HN28        11.5600     3.5520     5.9540 hn         1 BFO       0.313500
     72 H31         12.9100     3.1130     8.1610 h1         1 BFO       0.052700
     73 HO32        14.9740     3.5700     8.6550 ho         1 BFO       0.413000
     74 H33         12.4190     1.4150     6.3850 hc         1 BFO       0.077700
     75 H34         14.2920     0.4870     8.5930 hc         1 BFO       0.070700
     76 H35         11.5560     1.5690     8.5530 hc         1 BFO       0.036700
     77 H35A        11.6780     0.0020     9.3630 hc         1 BFO       0.036700
     78 H35B        12.6660     1.3620     9.9140 hc         1 BFO       0.036700
     79 H36         13.8000    -1.2120     6.8160 hc         1 BFO       0.046700
     80 H36A        12.0740    -0.9930     7.1330 hc         1 BFO       0.046700
     81 H37         13.8190    -1.5440     9.4910 hc         1 BFO       0.036367
     82 H37A        13.5380    -2.8870     8.3730 hc         1 BFO       0.036367
     83 H37B        12.1690    -2.0870     9.1570 hc         1 BFO       0.036367
     84 H38         15.4970     1.0190     6.2740 h4         1 BFO       0.024200
     85 H40          2.0120     0.0020     3.3160 ha         1 BFO       0.137000
     86 H42         -0.1140     0.0060     4.5940 ha         1 BFO       0.133000
     87 H43         -2.5530     0.0080     4.6020 ha         1 BFO       0.129000
     88 H44         -3.8220     0.0050     2.4930 ha         1 BFO       0.129000
     89 H45         -2.6700     0.0010     0.3420 ha         1 BFO       0.133000
@<TRIPOS>BOND
     1     1     2 ar
     2     1    46 ar
     3     2     3 ar
     4     3     4 1
     5     3    40 ar
     6     4     5 1
     7     5     6 1
     8     6     7 2
     9     6     8 1
    10     8     9 1
    11     9    10 1
    12     9    11 1
    13    11    12 2
    14    11    13 1
    15    13    14 1
    16    14    15 1
    17    14    25 1
    18    15    16 2
    19    15    17 1
    20    17    18 1
    21    18    19 1
    22    19    20 ar
    23    19    24 ar
    24    20    21 ar
    25    21    22 ar
    26    22    23 ar
    27    23    24 ar
    28    25    26 1
    29    26    27 1
    30    27    28 1
    31    28    29 1
    32    29    30 2
    33    29    31 1
    34    31    32 1
    35    31    33 1
    36    33    34 1
    37    33    38 1
    38    34    35 1
    39    34    36 1
    40    36    37 1
    41    38    39 2
    42    40    41 ar
    43    41    42 ar
    44    41    46 ar
    45    42    43 ar
    46    43    44 ar
    47    44    45 ar
    48    45    46 ar
    49     1    47 1
    50     2    48 1
    51     4    49 1
    52     4    50 1
    53     8    51 1
    54     9    52 1
    55    10    53 1
    56    10    54 1
    57    10    55 1
    58    13    56 1
    59    14    57 1
    60    18    58 1
    61    18    59 1
    62    20    60 1
    63    21    61 1
    64    22    62 1
    65    23    63 1
    66    24    64 1
    67    25    65 1
    68    25    66 1
    69    26    67 1
    70    26    68 1
    71    27    69 1
    72    27    70 1
    73    28    71 1
    74    31    72 1
    75    32    73 1
    76    33    74 1
    77    34    75 1
    78    35    76 1
    79    35    77 1
    80    35    78 1
    81    36    79 1
    82    36    80 1
    83    37    81 1
    84    37    82 1
    85    37    83 1
    86    38    84 1
    87    40    85 1
    88    42    86 1
    89    43    87 1
    90    44    88 1
    91    45    89 1
@<TRIPOS>SUBSTRUCTURE
     1 BFO         1 TEMP              0 ****  ****    0 ROOT
