@<TRIPOS>MOLECULE
molecule
   28    27     1     0     0
SMALL
bcc


@<TRIPOS>ATOM
      1 C2           0.0000     0.0000     0.0000 c3         1 BFR      -0.076400
      2 C3           1.5310     0.0000     0.0000 c3         1 BFR      -0.103400
      3 C4           2.0410     0.0000     1.4420 c3         1 BFR       0.223800
      4 N1           3.5070    -0.0010     1.4410 nu         1 BFR      -0.796200
      5 C5           4.1960    -0.0010     2.6360 ce         1 BFR       0.772200
      6 N2           3.5420    -0.0010     3.7710 n2         1 BFR      -0.807100
      7 N3           5.5450    -0.0010     2.6360 ne         1 BFR      -0.481000
      8 C6           6.2050    -0.9540     3.2660 c2         1 BFR       0.441100
      9 N4           5.5280    -2.0080     3.8120 nz         1 BFR      -0.761100
     10 N5           7.5670    -0.8860     3.3740 nz         1 BFR      -0.761100
     11 HC22        -0.3610     0.8840     0.5110 hc         1 BFR       0.054200
     12 HC33         1.8920     0.8840    -0.5110 hc         1 BFR       0.057700
     13 HC32         1.8920    -0.8840    -0.5110 hc         1 BFR       0.057700
     14 HC43         1.6800    -0.8840     1.9530 h1         1 BFR       0.081200
     15 HC42         1.6810     0.8850     1.9530 h1         1 BFR       0.081200
     16 HN1          4.0060     0.0600     0.5760 hn         1 BFR       0.477800
     17 HN22         4.0430    -0.0020     4.6370 hn         1 BFR       0.409400
     18 HN42         4.7450    -2.2380     3.2320 hn         1 BFR       0.502633
     19 HN43         5.2040    -1.7600     4.7260 hn         1 BFR       0.502633
     20 HN52         7.9790    -1.6520     2.8800 hn         1 BFR       0.502633
     21 HN53         7.8280    -0.9330     4.3390 hn         1 BFR       0.502633
     22 C1          -0.5100     0.0010    -1.4430 c3         1 BFR      -0.091100
     23 HC11        -0.1490     0.8860    -1.9530 hc         1 BFR       0.050033
     24 HC23        -0.3610    -0.8850     0.5100 hc         1 BFR       0.054200
     25 HC13        -0.1490    -0.8830    -1.9540 hc         1 BFR       0.050033
     26 HC12        -1.5930     0.0010    -1.4430 hc         1 BFR       0.050033
     27 H43          6.1370    -2.8000     3.8740 hn         1 BFR       0.502633
     28 H53          7.8880    -0.0150     3.0000 hn         1 BFR       0.502633
@<TRIPOS>BOND
     1    10     8 1
     2     8     9 1
     3     8     7 2
     4     7     5 1
     5     5     4 1
     6     5     6 2
     7     4     3 1
     8     2     3 1
     9     2     1 1
    10     1    11 1
    11     2    12 1
    12     2    13 1
    13     3    14 1
    14     3    15 1
    15     4    16 1
    16     6    17 1
    17     9    18 1
    18     9    19 1
    19    10    20 1
    20    10    21 1
    21     1    22 1
    22    22    23 1
    23     1    24 1
    24    22    25 1
    25    22    26 1
    26    27     9 1
    27    28    10 1
@<TRIPOS>SUBSTRUCTURE
     1 BFR         1 TEMP              0 ****  ****    0 ROOT
