@<TRIPOS>MOLECULE
BFR
   28    27     1     0     0
SMALL
bcc


@<TRIPOS>ATOM
      1 C2           0.0000     0.0000     0.0000 c3         1 BFR      -0.016400
      2 C3           1.5310     0.0000     0.0000 c3         1 BFR      -0.033400
      3 C4           2.0410     0.0000     1.4420 c3         1 BFR       0.141800
      4 N1           3.5070    -0.0010     1.4410 nu         1 BFR      -0.411200
      5 C5           4.1960    -0.0010     2.6360 ce         1 BFR       0.477200
      6 N2           3.5420    -0.0010     3.7710 n2         1 BFR      -0.726100
      7 N3           5.5450    -0.0010     2.6360 ne         1 BFR      -0.153000
      8 C6           6.2050    -0.9540     3.2660 c2         1 BFR      -0.087900
      9 N4           5.5280    -2.0080     3.8120 nz         1 BFR       0.166900
     10 N5           7.5670    -0.8860     3.3740 nz         1 BFR       0.166900
     11 HC22        -0.3610     0.8840     0.5110 hc         1 BFR       0.021700
     12 HC33         1.8920     0.8840    -0.5110 hc         1 BFR       0.030700
     13 HC32         1.8920    -0.8840    -0.5110 hc         1 BFR       0.030700
     14 HC43         1.6800    -0.8840     1.9530 h1         1 BFR       0.040200
     15 HC42         1.6810     0.8850     1.9530 h1         1 BFR       0.040200
     16 HN1          4.0060     0.0540     0.5750 hn         1 BFR       0.323800
     17 HN22         2.5410    -0.0020     3.7720 hn         1 BFR       0.408400
     18 HN42         5.5590    -2.7860     3.1830 hn         1 BFR       0.250300
     19 HN43         5.9540    -2.2640     4.6810 hn         1 BFR       0.250300
     20 HN52         7.8140    -0.6100     4.3040 hn         1 BFR       0.250300
     21 HN53         7.9620    -1.7840     3.1770 hn         1 BFR       0.250300
     22 C1          -0.5100     0.0010    -1.4430 c3         1 BFR       0.010900
     23 HC11        -1.5930     0.0000    -1.4430 hc         1 BFR       0.015700
     24 HC23        -0.3610    -0.8850     0.5100 hc         1 BFR       0.021700
     25 HC13        -0.1500     0.8860    -1.9530 hc         1 BFR       0.015700
     26 HC12        -0.1480    -0.8830    -1.9540 hc         1 BFR       0.015700
     27 H43          4.5720    -1.7500     3.9610 hn         1 BFR       0.250300
     28 H53          7.9230    -0.2410     2.6970 hn         1 BFR       0.250300
@<TRIPOS>BOND
     1     1     2 1   
     2     1    11 1   
     3     1    22 1   
     4     1    24 1   
     5     2     3 1   
     6     2    12 1   
     7     2    13 1   
     8     3     4 1   
     9     3    14 1   
    10     3    15 1   
    11     4     5 1   
    12     4    16 1   
    13     5     6 2   
    14     5     7 1   
    15     6    17 1   
    16     7     8 2   
    17     8     9 1   
    18     8    10 1   
    19     9    18 1   
    20     9    19 1   
    21     9    27 1   
    22    10    20 1   
    23    10    21 1   
    24    10    28 1   
    25    22    23 1   
    26    22    25 1   
    27    22    26 1   
@<TRIPOS>SUBSTRUCTURE
     1 BFR         1 TEMP              0 ****  ****    0 ROOT
