@<TRIPOS>MOLECULE
BFS
   33    34     1     0     0
SMALL
bcc


@<TRIPOS>ATOM
      1 C1           0.0000     0.0000     0.0000 ca         1 BFS      -0.165600
      2 C2           1.4010     0.0000     0.0000 ca         1 BFS       0.194100
      3 C3           2.0900     0.0000     1.2030 ca         1 BFS      -0.163000
      4 C4           1.3970    -0.0110     2.3970 ca         1 BFS      -0.078000
      5 C5           0.0110    -0.0170     2.4030 ca         1 BFS       0.069900
      6 C6          -0.6900    -0.0120     1.2140 ca         1 BFS      -0.093000
      7 C           -0.7430     0.0050    -1.2740 c          1 BFS       0.600700
      8 CE1         -2.8280     0.0030    -2.5360 c3         1 BFS       0.078000
      9 CE2         -3.0900     1.4480    -2.9670 c3         1 BFS      -0.013100
     10 C1'         -4.1390    -0.7130    -2.3550 ca         1 BFS      -0.095300
     11 C2'         -4.7150    -1.3790    -3.4210 ca         1 BFS      -0.094000
     12 C3'         -5.9190    -2.0360    -3.2560 ca         1 BFS      -0.075000
     13 C4'         -6.5490    -2.0280    -2.0250 ca         1 BFS       0.032100
     14 C5'         -5.9720    -1.3610    -0.9600 ca         1 BFS      -0.075000
     15 C6'         -4.7660    -0.7090    -1.1230 ca         1 BFS      -0.094000
     16 N           -2.0900    -0.0020    -1.2700 ns         1 BFS      -0.214900
     17 O           -0.1390     0.0150    -2.3300 o          1 BFS      -0.624100
     18 O2           2.0810     0.0110    -1.1740 oh         1 BFS      -0.450100
     19 F5          -0.6570    -0.0280     3.5770 f          1 BFS      -0.126900
     20 Br4         -8.1960    -2.9280    -1.8000 br         1 BFS      -0.125100
     21 H3           3.1730     0.0030     1.2060 ha         1 BFS       0.120000
     22 H4           1.9400    -0.0130     3.3340 ha         1 BFS       0.119000
     23 H6          -1.7730    -0.0150     1.2220 ha         1 BFS       0.117000
     24 HE1         -2.2430    -0.5000    -3.2960 h1         1 BFS       0.065700
     25 HE21        -2.7020     1.6030    -3.9670 hc         1 BFS       0.014367
     26 HE22        -4.1560     1.6400    -2.9590 hc         1 BFS       0.014367
     27 HE23        -2.5960     2.1250    -2.2800 hc         1 BFS       0.014367
     28 H2'         -4.2220    -1.3860    -4.3860 ha         1 BFS       0.111000
     29 H3'         -6.3700    -2.5580    -4.0920 ha         1 BFS       0.117500
     30 H5'         -6.4640    -1.3560     0.0060 ha         1 BFS       0.117500
     31 H6'         -4.3150    -0.1870    -0.2880 ha         1 BFS       0.111000
     32 HN          -2.5870    -0.0080    -0.4010 hn         1 BFS       0.187500
     33 HO2          2.7040    -0.6970    -1.1830 ho         1 BFS       0.402000
@<TRIPOS>BOND
     1     1     2 ar  
     2     1     6 ar  
     3     1     7 1   
     4     2     3 ar  
     5     2    18 1   
     6     3     4 ar  
     7     3    21 1   
     8     4     5 ar  
     9     4    22 1   
    10     5     6 ar  
    11     5    19 1   
    12     6    23 1   
    13     7    16 1   
    14     7    17 2   
    15     8     9 1   
    16     8    10 1   
    17     8    16 1   
    18     8    24 1   
    19     9    25 1   
    20     9    26 1   
    21     9    27 1   
    22    10    11 ar  
    23    10    15 ar  
    24    11    12 ar  
    25    11    28 1   
    26    12    13 ar  
    27    12    29 1   
    28    13    14 ar  
    29    13    20 1   
    30    14    15 ar  
    31    14    30 1   
    32    15    31 1   
    33    16    32 1   
    34    18    33 1   
@<TRIPOS>SUBSTRUCTURE
     1 BFS         1 TEMP              0 ****  ****    0 ROOT
