@<TRIPOS>MOLECULE
BFT
   54    55     1     0     0
SMALL
bcc


@<TRIPOS>ATOM
      1 CM2          0.0000     0.0000     0.0000 c3         1 BFT      -0.038400
      2 N3           6.1810    -1.3800     0.0180 n          1 BFT      -0.158800
      3 C2           6.5330    -1.9730     1.1760 c          1 BFT       0.642900
      4 S1           5.5340    -4.2720    -2.7430 ss         1 BFT      -0.426700
      5 C5           5.4030    -3.3630    -1.1830 c3         1 BFT       0.050400
      6 C4           6.2890    -2.1160    -1.2440 c3         1 BFT       0.034700
      7 CM4          7.7430    -2.5340    -1.4690 c3         1 BFT      -0.030100
      8 C6           3.9490    -2.9450    -0.9580 c3         1 BFT      -0.088400
      9 C7           3.0920    -4.1900    -0.7190 c3         1 BFT       0.211400
     10 O7           1.7750    -3.7940    -0.3320 os         1 BFT      -0.452200
     11 N1A          2.1470     0.0000     1.1520 nb         1 BFT      -0.659000
     12 C2A          1.5060     0.0000     0.0000 ca         1 BFT       0.680300
     13 N3A          2.1470     0.0010    -1.1520 nb         1 BFT      -0.671000
     14 C4A          3.4760     0.0070    -1.1890 ca         1 BFT       0.557200
     15 N4A          4.1460     0.0070    -2.4010 nv         1 BFT      -0.573500
     16 C5A          4.1860     0.0010     0.0140 ca         1 BFT      -0.459900
     17 C6A          3.4720     0.0000     1.1960 ca         1 BFT       0.502200
     18 C7A          5.6930     0.0010     0.0220 c3         1 BFT       0.138300
     19 P1           0.9320    -5.1450    -0.0970 p5         1 BFT       0.673900
     20 O1           1.6370    -6.0030     0.8810 o          1 BFT      -0.742500
     21 O2          -0.5290    -4.7760     0.4680 o          1 BFT      -0.742500
     22 O3           0.7840    -5.9340    -1.4930 o          1 BFT      -0.742500
     23 O5           6.5320    -1.3360     2.2080 o          1 BFT      -0.684100
     24 CB1          5.1300    -5.8950    -2.1860 c          1 BFT       0.662300
     25 OB1          4.9240    -6.0980    -1.0040 o          1 BFT      -0.478100
     26 CB2          5.0420    -7.0070    -3.1540 ca         1 BFT      -0.129600
     27 CB3          5.2720    -6.7770    -4.5110 ca         1 BFT      -0.042000
     28 CB4          5.1930    -7.8210    -5.4090 ca         1 BFT      -0.127500
     29 CB5          4.8750    -9.0930    -4.9680 ca         1 BFT      -0.113000
     30 CB6          4.6400    -9.3280    -3.6260 ca         1 BFT      -0.127500
     31 CB7          4.7210    -8.2940    -2.7170 ca         1 BFT      -0.042000
     32 HM21        -0.3610    -0.5650     0.8510 hc         1 BFT       0.022367
     33 HM22        -0.3610    -0.4540    -0.9150 hc         1 BFT       0.022367
     34 HM23        -0.3610     1.0190     0.0640 hc         1 BFT       0.022367
     35 H2           6.8730    -3.0020     1.1760 h5         1 BFT      -0.007800
     36 H5           5.7280    -3.9970    -0.3670 h1         1 BFT       0.074700
     37 H4           5.9640    -1.4820    -2.0600 h1         1 BFT       0.045700
     38 HM41         8.4010    -1.7250    -1.1740 hc         1 BFT       0.010033
     39 HM42         7.9630    -3.4120    -0.8750 hc         1 BFT       0.010033
     40 HM43         7.8960    -2.7590    -2.5170 hc         1 BFT       0.010033
     41 H61          3.8900    -2.2940    -0.0940 hc         1 BFT       0.027700
     42 H62          3.5850    -2.4180    -1.8320 hc         1 BFT       0.027700
     43 H71          3.5350    -4.7880     0.0680 h1         1 BFT       0.015200
     44 H72          3.0400    -4.7730    -1.6300 h1         1 BFT       0.015200
     45 H4A1         3.7020    -0.3630    -3.2180 hn         1 BFT       0.272300
     46 H4A2         5.0460     0.4390    -2.4740 hn         1 BFT       0.272300
     47 H6A          3.9890    -0.0020     2.1480 h4         1 BFT      -0.012900
     48 H7A1         6.0580     0.5160    -0.8580 h1         1 BFT       0.018700
     49 H7A2         6.0490     0.5080     0.9110 h1         1 BFT       0.018700
     50 HB3          5.5220    -5.7810    -4.8570 ha         1 BFT       0.126000
     51 HB4          5.3740    -7.6430    -6.4620 ha         1 BFT       0.089500
     52 HB5          4.8120    -9.9100    -5.6770 ha         1 BFT       0.081000
     53 HB6          4.3910   -10.3260    -3.2870 ha         1 BFT       0.089500
     54 HB7          4.5370    -8.4790    -1.6650 ha         1 BFT       0.126000
@<TRIPOS>BOND
     1     1    12 1   
     2     1    32 1   
     3     1    33 1   
     4     1    34 1   
     5     2     3 1   
     6     2     6 1   
     7     2    18 1   
     8     3    23 2   
     9     3    35 1   
    10     4     5 1   
    11     4    24 1   
    12     5     6 1   
    13     5     8 1   
    14     5    36 1   
    15     6     7 1   
    16     6    37 1   
    17     7    38 1   
    18     7    39 1   
    19     7    40 1   
    20     8     9 1   
    21     8    41 1   
    22     8    42 1   
    23     9    10 1   
    24     9    43 1   
    25     9    44 1   
    26    10    19 1   
    27    11    12 ar  
    28    11    17 ar  
    29    12    13 ar  
    30    13    14 ar  
    31    14    15 1   
    32    14    16 ar  
    33    15    45 1   
    34    15    46 1   
    35    16    17 ar  
    36    16    18 1   
    37    17    47 1   
    38    18    48 1   
    39    18    49 1   
    40    19    20 1   
    41    19    21 1   
    42    19    22 1   
    43    24    25 2   
    44    24    26 1   
    45    26    27 ar  
    46    26    31 ar  
    47    27    28 ar  
    48    27    50 1   
    49    28    29 ar  
    50    28    51 1   
    51    29    30 ar  
    52    29    52 1   
    53    30    31 ar  
    54    30    53 1   
    55    31    54 1   
@<TRIPOS>SUBSTRUCTURE
     1 BFT         1 TEMP              0 ****  ****    0 ROOT
