@<TRIPOS>MOLECULE
molecule
   43    45     1     0     0
SMALL
bcc


@<TRIPOS>ATOM
      1 Br           0.0000     0.0000     0.0000 br         1 BFU      -0.089100
      2 C2           1.8910     0.0000     0.0000 ca         1 BFU      -0.189200
      3 C3           2.5890     0.0000     1.1910 ca         1 BFU       0.485200
      4 N4           3.9090    -0.0060     1.2010 nb         1 BFU      -0.674000
      5 C5           4.6120    -0.0030     0.0810 ca         1 BFU       0.587200
      6 C6           3.9750    -0.0040    -1.1550 ca         1 BFU      -0.304300
      7 C7           2.5920    -0.0020    -1.1990 ca         1 BFU      -0.040000
      8 N8           6.0050    -0.0050     0.1400 ns         1 BFU      -0.561400
      9 C9           6.6290    -0.1140     1.3290 c          1 BFU       0.777100
     10 O10          5.9820    -0.3110     2.3390 o          1 BFU      -0.583100
     11 N11          7.9700    -0.0080     1.3980 ns         1 BFU      -0.566900
     12 C12          8.6480    -0.1270     2.6910 cx         1 BFU       0.096700
     13 C13          9.9850    -0.8740     2.7220 cx         1 BFU      -0.132400
     14 C14          9.9550     0.6470     2.8780 cx         1 BFU      -0.113400
     15 C15         10.4440     1.4750     1.7180 ca         1 BFU      -0.144300
     16 C16          9.5890     2.3680     1.0980 ca         1 BFU       0.177900
     17 F            8.3170     2.4940     1.5330 f          1 BFU      -0.116900
     18 C18         10.0320     3.1360     0.0280 ca         1 BFU      -0.199000
     19 C19         11.3250     3.0170    -0.4250 ca         1 BFU      -0.056000
     20 C20         12.2020     2.1170     0.1950 ca         1 BFU      -0.225600
     21 C21         11.7490     1.3370     1.2720 ca         1 BFU       0.200100
     22 O22         12.5880     0.4630     1.8800 oh         1 BFU      -0.494100
     23 C23         13.5820     1.9850    -0.2830 c          1 BFU       0.573700
     24 O24         14.3380     1.2040     0.2560 o          1 BFU      -0.508100
     25 C25         14.0600     2.8190    -1.4430 c3         1 BFU      -0.180400
     26 C26         15.5260     2.4900    -1.7360 c3         1 BFU      -0.082100
     27 H3           2.0470    -0.0030     2.1290 h4         1 BFU       0.042100
     28 H6           4.5530    -0.0040    -2.0710 ha         1 BFU       0.138000
     29 H7           2.0680    -0.0030    -2.1480 ha         1 BFU       0.151000
     30 HN8          6.5410     0.0500    -0.7030 hn         1 BFU       0.323500
     31 H11          8.5080     0.0860     0.5590 hn         1 BFU       0.310500
     32 H12          8.0500    -0.2310     3.5880 h1         1 BFU       0.132700
     33 H131        10.1870    -1.4330     3.6280 hc         1 BFU       0.086200
     34 H132        10.3380    -1.2390     1.7650 hc         1 BFU       0.086200
     35 H14         10.1300     1.0030     3.8860 hc         1 BFU       0.099700
     36 H18          9.3550     3.8320    -0.4510 ha         1 BFU       0.151000
     37 H19         11.6660     3.6200    -1.2580 ha         1 BFU       0.145000
     38 H22         13.0360     0.8970     2.5870 ho         1 BFU       0.437000
     39 H251        13.9690     3.8700    -1.1940 hc         1 BFU       0.062200
     40 H252        13.4590     2.6010    -2.3170 hc         1 BFU       0.062200
     41 H261        15.6180     1.4380    -1.9790 hc         1 BFU       0.043700
     42 H262        15.8690     3.0850    -2.5740 hc         1 BFU       0.043700
     43 H263        16.1280     2.7130    -0.8640 hc         1 BFU       0.043700
@<TRIPOS>BOND
     1     1     2 1
     2     2     3 ar
     3     2     7 ar
     4     3     4 ar
     5     3    27 1
     6     4     5 ar
     7     5     6 ar
     8     5     8 1
     9     6     7 ar
    10     6    28 1
    11     7    29 1
    12     8     9 1
    13     8    30 1
    14     9    10 2
    15     9    11 1
    16    11    12 1
    17    11    31 1
    18    12    13 1
    19    12    14 1
    20    12    32 1
    21    13    14 1
    22    13    33 1
    23    13    34 1
    24    14    15 1
    25    14    35 1
    26    15    16 ar
    27    15    21 ar
    28    16    17 1
    29    16    18 ar
    30    18    19 ar
    31    18    36 1
    32    19    20 ar
    33    19    37 1
    34    20    21 ar
    35    20    23 1
    36    21    22 1
    37    22    38 1
    38    23    24 2
    39    23    25 1
    40    25    26 1
    41    25    39 1
    42    25    40 1
    43    26    41 1
    44    26    42 1
    45    26    43 1
@<TRIPOS>SUBSTRUCTURE
     1 BFU         1 TEMP              0 ****  ****    0 ROOT
