@<TRIPOS>MOLECULE
molecule
   86    91     1     0     0
SMALL
bcc


@<TRIPOS>ATOM
      1 C1           0.0000     0.0000     0.0000 c3         1 BFV       0.112800
      2 C13         -1.9530    -1.2300     0.7340 c3         1 BFV       0.155800
      3 C15         -2.4270    -1.5130    -0.6930 c3         1 BFV      -0.089400
      4 C17         -3.9550    -1.5840    -0.7180 c3         1 BFV      -0.025700
      5 C22         -5.0880    -1.5180    -4.1540 cc         1 BFV       0.410800
      6 C23         -5.0290    -2.8950    -3.9010 cd         1 BFV      -0.321600
      7 C24         -4.6070    -3.0700    -2.6250 cc         1 BFV      -0.068600
      8 C3           0.0170    -1.1290     2.1400 c3         1 BFV       0.112800
      9 C30         -4.3970    -4.4150    -1.9730 c3         1 BFV      -0.026100
     10 C31         -5.1520    -5.4780    -2.7790 c3         1 BFV       0.249800
     11 C33         -5.3660    -4.0280    -4.8400 c3         1 BFV       0.308100
     12 C39         -5.4970    -0.8800    -5.4310 ca         1 BFV      -0.114500
     13 C4           1.5500    -1.1170     2.1180 c3         1 BFV       0.136900
     14 C41         -5.1810    -1.4850    -6.6460 ca         1 BFV      -0.103000
     15 C42         -5.5610    -0.8940    -7.8370 ca         1 BFV      -0.126000
     16 C43         -6.2550     0.3000    -7.8310 ca         1 BFV       0.051400
     17 C44         -6.5790     0.9170    -6.6170 ca         1 BFV       0.031000
     18 C45         -6.2020     0.3190    -5.4140 ca         1 BFV      -0.074000
     19 C54         -7.2980     2.1550    -6.6110 cg         1 BFV      -0.126000
     20 C56         -7.9020     3.1620    -6.5930 ch         1 BFV      -0.083000
     21 C58         -8.0040     4.7130    -7.1170 ca         1 BFV       0.042000
     22 C6           1.5310     0.0000     0.0000 c3         1 BFV       0.136900
     23 C60         -8.3720     4.7560    -8.5200 ca         1 BFV      -0.101000
     24 C61         -9.0680     6.1190    -8.7610 ca         1 BFV      -0.113300
     25 C62         -9.3040     7.1310    -7.8050 ca         1 BFV      -0.103000
     26 C63         -8.8210     6.7980    -6.4860 ca         1 BFV      -0.098000
     27 C64         -8.3110     5.7700    -6.3660 ca         1 BFV      -0.110000
     28 C71         -9.3190     6.2670   -10.2210 c3         1 BFV       0.150100
     29 C75        -10.9800     6.1220   -12.1390 c3         1 BFV       0.150100
     30 C77        -12.5530     5.9940   -12.0170 ca         1 BFV      -0.062300
     31 C79        -13.3060     7.2490   -11.9920 ca         1 BFV      -0.115000
     32 C80        -14.6520     6.8540   -11.8800 ca         1 BFV      -0.121000
     33 C81        -15.2860     5.9240   -12.4480 ca         1 BFV      -0.114000
     34 C82        -14.5340     4.8870   -12.5850 ca         1 BFV      -0.121000
     35 C83        -13.0420     4.9850   -12.6450 ca         1 BFV      -0.115000
     36 C94         -5.3840    -7.5060    -5.7300 c3         1 BFV      -0.251300
     37 N19         -4.4090    -1.8540    -2.0840 na         1 BFV       0.095400
     38 N2          -0.4860    -1.1610     0.7580 n3         1 BFV      -0.706600
     39 N21         -4.7180    -0.8910    -3.0550 nd         1 BFV      -0.504800
     40 N32         -4.8930    -5.2730    -4.2110 n3         1 BFV      -0.817500
     41 N73        -10.9110     6.1350   -10.6010 n7         1 BFV      -0.777200
     42 O5           2.0030     0.0000     1.3500 os         1 BFV      -0.416600
     43 O92         -3.2760    -7.0920    -4.1460 o          1 BFV      -0.626800
     44 O96         -3.4930    -5.6730    -6.1610 o          1 BFV      -0.626800
     45 S90         -4.0820    -6.4110    -5.1000 s6         1 BFV       1.328900
     46 Cl52        -6.7270     1.0350    -9.3310 cl         1 BFV      -0.102400
     47 H1          -0.3500     0.9470     0.3910 h1         1 BFV       0.044200
     48 H2          -0.3500    -0.1170    -1.0180 h1         1 BFV       0.044200
     49 H3          -2.4640    -0.3550     1.1180 h1         1 BFV       0.036200
     50 H4          -2.1750    -2.0830     1.3640 h1         1 BFV       0.036200
     51 H5          -1.9860    -0.7910    -1.3690 hc         1 BFV       0.064200
     52 H6          -2.1240    -2.5120    -0.9830 hc         1 BFV       0.064200
     53 H7          -4.3280    -1.7000     0.2920 h1         1 BFV       0.106200
     54 H8          -4.3520    -0.6720    -1.1460 h1         1 BFV       0.106200
     55 H9          -0.3190    -2.0380     2.6230 h1         1 BFV       0.044200
     56 H10         -0.3320    -0.2740     2.7060 h1         1 BFV       0.044200
     57 H11         -3.3390    -4.5170    -1.7660 hc         1 BFV       0.063700
     58 H12         -4.9270    -4.4060    -1.0280 hc         1 BFV       0.063700
     59 H13         -4.6820    -6.4340    -2.5780 h1         1 BFV       0.064700
     60 H14         -6.1950    -5.4270    -2.4910 h1         1 BFV       0.064700
     61 H15         -6.4470    -4.0680    -4.8990 h1         1 BFV       0.066200
     62 H16         -4.8920    -3.7950    -5.7860 h1         1 BFV       0.066200
     63 H17          1.9030    -2.0700     1.7420 h1         1 BFV       0.053700
     64 H18          1.9140    -0.9760     3.1290 h1         1 BFV       0.053700
     65 H19         -4.6900    -2.4500    -6.6590 ha         1 BFV       0.153000
     66 H20         -5.3140    -1.3670    -8.7790 ha         1 BFV       0.150000
     67 H21         -6.5000     0.7590    -4.4700 ha         1 BFV       0.158000
     68 H22          1.8810     0.9170    -0.4590 h1         1 BFV       0.053700
     69 H23          1.8810    -0.8460    -0.5790 h1         1 BFV       0.053700
     70 H24         -8.0350     4.0710    -9.2880 ha         1 BFV       0.170000
     71 H25         -9.7760     8.0760    -8.0450 ha         1 BFV       0.154000
     72 H26         -9.0820     7.4360    -5.6510 ha         1 BFV       0.134000
     73 H27         -7.9140     5.7070    -5.3600 ha         1 BFV       0.107000
     74 H28         -8.9620     7.2390   -10.5400 h1         1 BFV       0.044700
     75 H29         -8.7670     5.5000   -10.7510 h1         1 BFV       0.044700
     76 H30        -10.5170     5.2450   -12.5750 h1         1 BFV       0.060200
     77 H31        -10.6640     7.0570   -12.5850 h1         1 BFV       0.060200
     78 H32        -13.0100     8.0430   -11.3170 ha         1 BFV       0.140500
     79 H33        -15.2980     7.7170   -11.7710 ha         1 BFV       0.097500
     80 H34        -16.3520     5.7830   -12.3210 ha         1 BFV       0.135000
     81 H35        -14.9860     4.0320   -13.0730 ha         1 BFV       0.097500
     82 H36        -12.4890     4.0550   -12.6810 ha         1 BFV       0.140500
     83 H37         -4.9560    -8.4690    -5.9810 h1         1 BFV       0.097367
     84 H38         -5.8280    -7.0670    -6.6140 h1         1 BFV       0.097367
     85 H39         -6.1450    -7.6370    -4.9700 h1         1 BFV       0.097367
     86 H41        -11.2690     5.2720   -10.2430 hn         1 BFV       0.350800
@<TRIPOS>BOND
     1     8    13 1
     2     8    38 1
     3    43    45 2
     4     9    10 1
     5     9     7 1
     6     2    38 1
     7     2     3 1
     8    10    40 1
     9    13    42 1
    10    38     1 1
    11     4     3 1
    12     4    37 1
    13    42    22 1
    14     7    37 1
    15     7     6 2
    16    45    40 1
    17    45    36 1
    18    45    44 2
    19    40    11 1
    20    37    39 1
    21    22     1 1
    22     6    11 1
    23     6     5 1
    24    39     5 2
    25     5    12 1
    26    12    14 ar
    27    12    18 ar
    28    14    15 ar
    29    34    33 ar
    30    34    35 ar
    31    18    17 ar
    32    33    32 ar
    33    35    30 ar
    34    32    31 ar
    35    30    31 ar
    36    30    29 1
    37    15    16 ar
    38    17    16 ar
    39    17    19 1
    40    29    41 1
    41    41    28 1
    42    16    46 1
    43    19    20 3
    44    20    21 1
    45    23    21 ar
    46    23    24 ar
    47    28    24 1
    48    21    27 ar
    49    24    25 ar
    50    27    26 ar
    51    25    26 ar
    52     1    47 1
    53     1    48 1
    54     2    49 1
    55     2    50 1
    56     3    51 1
    57     3    52 1
    58     4    53 1
    59     4    54 1
    60     8    55 1
    61     8    56 1
    62     9    57 1
    63     9    58 1
    64    10    59 1
    65    10    60 1
    66    11    61 1
    67    11    62 1
    68    13    63 1
    69    13    64 1
    70    14    65 1
    71    15    66 1
    72    18    67 1
    73    22    68 1
    74    22    69 1
    75    23    70 1
    76    25    71 1
    77    26    72 1
    78    27    73 1
    79    28    74 1
    80    28    75 1
    81    29    76 1
    82    29    77 1
    83    31    78 1
    84    32    79 1
    85    33    80 1
    86    34    81 1
    87    35    82 1
    88    36    83 1
    89    36    84 1
    90    36    85 1
    91    41    86 1
@<TRIPOS>SUBSTRUCTURE
     1 BFV         1 TEMP              0 ****  ****    0 ROOT
