@<TRIPOS>MOLECULE
BFV
   86    91     1     0     0
SMALL
bcc


@<TRIPOS>ATOM
      1 C1           0.0000     0.0000     0.0000 c3         1 BFV       0.102300
      2 C13         -1.9530    -1.2300     0.7340 c3         1 BFV       0.153800
      3 C15         -2.4270    -1.5130    -0.6930 c3         1 BFV      -0.040400
      4 C17         -3.9550    -1.5840    -0.7180 c3         1 BFV      -0.119700
      5 C22         -5.0880    -1.5180    -4.1540 cc         1 BFV       0.447800
      6 C23         -5.0290    -2.8950    -3.9010 cc         1 BFV      -0.337600
      7 C24         -4.6070    -3.0700    -2.6250 cd         1 BFV      -0.234600
      8 C3           0.0170    -1.1290     2.1400 c3         1 BFV       0.102300
      9 C30         -4.3970    -4.4150    -1.9730 c3         1 BFV       0.054900
     10 C31         -5.1520    -5.4780    -2.7790 c3         1 BFV       0.242800
     11 C33         -5.3660    -4.0280    -4.8400 c3         1 BFV       0.324100
     12 C39         -5.4970    -0.8800    -5.4310 ca         1 BFV      -0.112500
     13 C4           1.5500    -1.1170     2.1180 c3         1 BFV       0.213400
     14 C41         -5.1810    -1.4850    -6.6460 ca         1 BFV      -0.090000
     15 C42         -5.5610    -0.8940    -7.8370 ca         1 BFV      -0.102000
     16 C43         -6.2550     0.3000    -7.8310 ca         1 BFV      -0.020600
     17 C44         -6.5790     0.9170    -6.6170 ca         1 BFV       0.053000
     18 C45         -6.2020     0.3190    -5.4140 ca         1 BFV      -0.053000
     19 C54         -7.2980     2.1550    -6.6110 cg         1 BFV      -0.130000
     20 C56         -7.9020     3.1620    -6.5930 ch         1 BFV      -0.092000
     21 C58         -8.0040     4.7130    -7.1170 ca         1 BFV       0.082000
     22 C6           1.5310     0.0000     0.0000 c3         1 BFV       0.213400
     23 C60         -8.3720     4.7560    -8.5200 ca         1 BFV      -0.083000
     24 C61         -9.0680     6.1190    -8.7610 ca         1 BFV      -0.120300
     25 C62         -9.3040     7.1310    -7.8050 ca         1 BFV      -0.071000
     26 C63         -8.8210     6.7980    -6.4860 ca         1 BFV      -0.072000
     27 C64         -8.3110     5.7700    -6.3660 ca         1 BFV      -0.102000
     28 C71         -9.3190     6.2670   -10.2210 c3         1 BFV       0.170100
     29 C75        -10.9800     6.1220   -12.1390 c3         1 BFV       0.178100
     30 C77        -12.5530     5.9940   -12.0170 ca         1 BFV      -0.086300
     31 C79        -13.3060     7.2490   -11.9920 ca         1 BFV      -0.082000
     32 C80        -14.6520     6.8540   -11.8800 ca         1 BFV      -0.092000
     33 C81        -15.2860     5.9240   -12.4480 ca         1 BFV      -0.094000
     34 C82        -14.5340     4.8870   -12.5850 ca         1 BFV      -0.092000
     35 C83        -13.0420     4.9850   -12.6450 ca         1 BFV      -0.082000
     36 C94         -5.3840    -7.5060    -5.7300 c3         1 BFV       0.009700
     37 N19         -4.4090    -1.8540    -2.0840 na         1 BFV       0.541400
     38 N2          -0.4860    -1.1610     0.7580 n3         1 BFV      -0.526600
     39 N21         -4.7180    -0.8910    -3.0550 nd         1 BFV      -0.655800
     40 N32         -4.8930    -5.2730    -4.2110 n3         1 BFV      -0.544500
     41 N73        -10.9110     6.1350   -10.6010 n7         1 BFV      -0.610200
     42 O5           2.0030     0.0000     1.3500 os         1 BFV      -0.404600
     43 O92         -3.2760    -7.0920    -4.1460 o          1 BFV      -0.583800
     44 O96         -3.4930    -5.6730    -6.1610 o          1 BFV      -0.583800
     45 S90         -4.0820    -6.4110    -5.1000 s6         1 BFV       0.965900
     46 Cl52        -6.7270     1.0350    -9.3310 cl         1 BFV      -0.023400
     47 H1          -0.3500     0.9470     0.3910 h1         1 BFV       0.019200
     48 H2          -0.3500    -0.1170    -1.0180 h1         1 BFV       0.019200
     49 H3          -2.4640    -0.3550     1.1180 h1         1 BFV       0.011200
     50 H4          -2.1750    -2.0830     1.3640 h1         1 BFV       0.011200
     51 H5          -1.9860    -0.7910    -1.3690 hc         1 BFV       0.036200
     52 H6          -2.1240    -2.5120    -0.9830 hc         1 BFV       0.036200
     53 H7          -4.3280    -1.7000     0.2920 h1         1 BFV       0.069700
     54 H8          -4.3520    -0.6720    -1.1460 h1         1 BFV       0.069700
     55 H9          -0.3190    -2.0380     2.6230 h1         1 BFV       0.019200
     56 H10         -0.3320    -0.2740     2.7060 h1         1 BFV       0.019200
     57 H11         -3.3390    -4.5170    -1.7660 hc         1 BFV       0.026700
     58 H12         -4.9270    -4.4060    -1.0280 hc         1 BFV       0.026700
     59 H13         -4.6820    -6.4340    -2.5780 h1         1 BFV       0.030200
     60 H14         -6.1950    -5.4270    -2.4910 h1         1 BFV       0.030200
     61 H15         -6.4470    -4.0680    -4.8990 h1         1 BFV       0.033200
     62 H16         -4.8920    -3.7950    -5.7860 h1         1 BFV       0.033200
     63 H17          1.9030    -2.0700     1.7420 h1         1 BFV       0.012700
     64 H18          1.9140    -0.9760     3.1290 h1         1 BFV       0.012700
     65 H19         -4.6900    -2.4500    -6.6590 ha         1 BFV       0.130000
     66 H20         -5.3140    -1.3670    -8.7790 ha         1 BFV       0.117000
     67 H21         -6.5000     0.7590    -4.4700 ha         1 BFV       0.126000
     68 H22          1.8810     0.9170    -0.4590 h1         1 BFV       0.012700
     69 H23          1.8810    -0.8460    -0.5790 h1         1 BFV       0.012700
     70 H24         -8.0350     4.0710    -9.2880 ha         1 BFV       0.138000
     71 H25         -9.7760     8.0760    -8.0450 ha         1 BFV       0.122000
     72 H26         -9.0820     7.4360    -5.6510 ha         1 BFV       0.105000
     73 H27         -7.9140     5.7070    -5.3600 ha         1 BFV       0.081000
     74 H28         -8.9620     7.2390   -10.5400 h1         1 BFV       0.014200
     75 H29         -8.7670     5.5000   -10.7510 h1         1 BFV       0.014200
     76 H30        -10.5170     5.2450   -12.5750 h1         1 BFV       0.028200
     77 H31        -10.6640     7.0570   -12.5850 h1         1 BFV       0.028200
     78 H32        -13.0100     8.0430   -11.3170 ha         1 BFV       0.114500
     79 H33        -15.2980     7.7170   -11.7710 ha         1 BFV       0.070000
     80 H34        -16.3520     5.7830   -12.3210 ha         1 BFV       0.112000
     81 H35        -14.9860     4.0320   -13.0730 ha         1 BFV       0.070000
     82 H36        -12.4890     4.0550   -12.6810 ha         1 BFV       0.114500
     83 H37         -4.9560    -8.4690    -5.9810 h1         1 BFV       0.062033
     84 H38         -5.8280    -7.0670    -6.6140 h1         1 BFV       0.062033
     85 H39         -6.1450    -7.6370    -4.9700 h1         1 BFV       0.062033
     86 H41        -11.2690     5.2720   -10.2430 hn         1 BFV       0.272800
@<TRIPOS>BOND
     1     1    22 1   
     2     1    38 1   
     3     1    47 1   
     4     1    48 1   
     5     2     3 1   
     6     2    38 1   
     7     2    49 1   
     8     2    50 1   
     9     3     4 1   
    10     3    51 1   
    11     3    52 1   
    12     4    37 1   
    13     4    53 1   
    14     4    54 1   
    15     5     6 1   
    16     5    12 1   
    17     5    39 2   
    18     6     7 2   
    19     6    11 1   
    20     7     9 1   
    21     7    37 1   
    22     8    13 1   
    23     8    38 1   
    24     8    55 1   
    25     8    56 1   
    26     9    10 1   
    27     9    57 1   
    28     9    58 1   
    29    10    40 1   
    30    10    59 1   
    31    10    60 1   
    32    11    40 1   
    33    11    61 1   
    34    11    62 1   
    35    12    14 ar  
    36    12    18 ar  
    37    13    42 1   
    38    13    63 1   
    39    13    64 1   
    40    14    15 ar  
    41    14    65 1   
    42    15    16 ar  
    43    15    66 1   
    44    16    17 ar  
    45    16    46 1   
    46    17    18 ar  
    47    17    19 1   
    48    18    67 1   
    49    19    20 3   
    50    20    21 1   
    51    21    23 ar  
    52    21    27 ar  
    53    22    42 1   
    54    22    68 1   
    55    22    69 1   
    56    23    24 ar  
    57    23    70 1   
    58    24    25 ar  
    59    24    28 1   
    60    25    26 ar  
    61    25    71 1   
    62    26    27 ar  
    63    26    72 1   
    64    27    73 1   
    65    28    41 1   
    66    28    74 1   
    67    28    75 1   
    68    29    30 1   
    69    29    41 1   
    70    29    76 1   
    71    29    77 1   
    72    30    31 ar  
    73    30    35 ar  
    74    31    32 ar  
    75    31    78 1   
    76    32    33 ar  
    77    32    79 1   
    78    33    34 ar  
    79    33    80 1   
    80    34    35 ar  
    81    34    81 1   
    82    35    82 1   
    83    36    45 1   
    84    36    83 1   
    85    36    84 1   
    86    36    85 1   
    87    37    39 1   
    88    40    45 1   
    89    41    86 1   
    90    43    45 2   
    91    44    45 2   
@<TRIPOS>SUBSTRUCTURE
     1 BFV         1 TEMP              0 ****  ****    0 ROOT
