@<TRIPOS>MOLECULE
BFX
   69    73     1     0     0
SMALL
bcc


@<TRIPOS>ATOM
      1 Br1          0.0000     0.0000     0.0000 br         1 BFX      -0.099100
      2 C2           1.8910     0.0000     0.0000 ca         1 BFX      -0.030900
      3 C3           2.5850     0.0000     1.2020 ca         1 BFX       0.201100
      4 C4           2.5830    -0.0060    -1.1970 ca         1 BFX      -0.017000
      5 O5           1.9060    -0.0010     2.3800 os         1 BFX      -0.287900
      6 C6           3.9720    -0.0010     1.2010 ca         1 BFX      -0.247000
      7 C7           3.9650    -0.0060    -1.1970 ca         1 BFX      -0.177000
      8 C8           2.6850    -0.0020     3.5780 c3         1 BFX       0.197400
      9 C9           4.6600    -0.0010     0.0010 ca         1 BFX       0.156900
     10 C10          1.7540    -0.0010     4.7920 c3         1 BFX      -0.033400
     11 F11          6.0110    -0.0000    -0.0030 f          1 BFX      -0.126900
     12 C12          2.5880    -0.0020     6.0740 c3         1 BFX       0.036900
     13 C13          1.6700    -0.0030     7.2700 ca         1 BFX      -0.087300
     14 C14          1.2520    -1.2030     7.8160 ca         1 BFX      -0.106000
     15 C15          1.2550     1.1980     7.8200 ca         1 BFX      -0.106000
     16 C16          0.4120    -1.2120     8.9100 ca         1 BFX      -0.054500
     17 C17          0.4160     1.2060     8.9140 ca         1 BFX      -0.054500
     18 C18         -0.0160    -0.0040     9.4690 ca         1 BFX      -0.052800
     19 C19         -0.9120    -0.0030    10.6360 ce         1 BFX       0.041600
     20 C20         -0.4620     0.4920    11.7950 cf         1 BFX      -0.228400
     21 C21         -2.3020    -0.5560    10.4820 c3         1 BFX       0.023800
     22 C22          0.9010     1.0240    11.8480 c          1 BFX       0.612300
     23 C23         -1.2960     0.5250    13.0430 c3         1 BFX       0.156000
     24 C24         -2.8980    -0.8420    11.8630 c3         1 BFX       0.141800
     25 O25          1.5960     1.0210    10.8480 o          1 BFX      -0.653100
     26 N26          1.3880     1.5170    13.0040 n          1 BFX      -0.083800
     27 N27         -2.7150     0.3450    12.7100 n7         1 BFX      -0.575200
     28 C28          0.6170     1.3770    14.2420 cx         1 BFX      -0.103300
     29 C29          2.6880     2.1930    13.0230 c3         1 BFX       0.085300
     30 C30          0.0550     2.6540    14.8720 cx         1 BFX      -0.120400
     31 C31          1.2360     1.9340    15.5260 cx         1 BFX      -0.120400
     32 C32          2.5370     3.5870    12.4720 ca         1 BFX      -0.115300
     33 C33          2.3770     4.6570    13.3340 ca         1 BFX      -0.037600
     34 C34          2.5660     3.7970    11.1060 ca         1 BFX      -0.074000
     35 Cl35         2.3490     4.3950    15.0500 cl         1 BFX      -0.013400
     36 C36          2.2390     5.9380    12.8280 ca         1 BFX      -0.101000
     37 C37          2.4280     5.0770    10.6010 ca         1 BFX      -0.100000
     38 C38          2.2620     6.1470    11.4610 ca         1 BFX      -0.087000
     39 H4           2.0410    -0.0100    -2.1350 ha         1 BFX       0.119000
     40 H6           4.5150     0.0010     2.1380 ha         1 BFX       0.141000
     41 H7           4.5050    -0.0080    -2.1360 ha         1 BFX       0.125000
     42 H8           3.3100     0.8820     3.6020 h1         1 BFX       0.003700
     43 H8A          3.3090    -0.8870     3.6020 h1         1 BFX       0.003700
     44 H10          1.1300     0.8840     4.7680 hc         1 BFX       0.029700
     45 H10A         1.1280    -0.8850     4.7680 hc         1 BFX       0.029700
     46 H12          3.2130     0.8820     6.0990 hc         1 BFX       0.016700
     47 H12A         3.2130    -0.8870     6.0980 hc         1 BFX       0.016700
     48 H14          1.5840    -2.1390     7.3830 ha         1 BFX       0.101500
     49 H15          1.5910     2.1340     7.3900 ha         1 BFX       0.101500
     50 H16          0.0840    -2.1530     9.3340 ha         1 BFX       0.102500
     51 H17          0.0910     2.1470     9.3420 ha         1 BFX       0.102500
     52 H21         -2.9220     0.1690     9.9670 hc         1 BFX       0.033700
     53 H21A        -2.2620    -1.4750     9.9100 hc         1 BFX       0.033700
     54 H23         -0.9810    -0.2720    13.7050 h1         1 BFX       0.039200
     55 H23A        -1.1640     1.4810    13.5360 h1         1 BFX       0.039200
     56 H24         -2.3890    -1.6880    12.3090 h1         1 BFX       0.008200
     57 H24A        -3.9550    -1.0580    11.7640 h1         1 BFX       0.008200
     58 HN27        -3.2450     0.2390    13.5520 hn         1 BFX       0.252800
     59 H28          0.0040     0.4950    14.3800 h1         1 BFX       0.111700
     60 H29          3.3930     1.6390    12.4150 h1         1 BFX       0.047700
     61 H29A         3.0530     2.2450    14.0420 h1         1 BFX       0.047700
     62 H30          0.2960     3.5760    14.3560 hc         1 BFX       0.064200
     63 H30A        -0.8970     2.5460    15.3780 hc         1 BFX       0.064200
     64 H31          1.0060     1.3860    16.4310 hc         1 BFX       0.064200
     65 H31A         2.1990     2.4150    15.4100 hc         1 BFX       0.064200
     66 H34          2.6960     2.9600    10.4310 ha         1 BFX       0.145000
     67 H36          2.1120     6.7770    13.5020 ha         1 BFX       0.114000
     68 H37          2.4480     5.2420     9.5310 ha         1 BFX       0.106000
     69 H38          2.1540     7.1490    11.0640 ha         1 BFX       0.106000
@<TRIPOS>BOND
     1     1     2 1   
     2     2     3 ar  
     3     2     4 ar  
     4     3     5 1   
     5     3     6 ar  
     6     4     7 ar  
     7     4    39 1   
     8     5     8 1   
     9     6     9 ar  
    10     6    40 1   
    11     7     9 ar  
    12     7    41 1   
    13     8    10 1   
    14     8    42 1   
    15     8    43 1   
    16     9    11 1   
    17    10    12 1   
    18    10    44 1   
    19    10    45 1   
    20    12    13 1   
    21    12    46 1   
    22    12    47 1   
    23    13    14 ar  
    24    13    15 ar  
    25    14    16 ar  
    26    14    48 1   
    27    15    17 ar  
    28    15    49 1   
    29    16    18 ar  
    30    16    50 1   
    31    17    18 ar  
    32    17    51 1   
    33    18    19 1   
    34    19    20 2   
    35    19    21 1   
    36    20    22 1   
    37    20    23 1   
    38    21    24 1   
    39    21    52 1   
    40    21    53 1   
    41    22    25 2   
    42    22    26 1   
    43    23    27 1   
    44    23    54 1   
    45    23    55 1   
    46    24    27 1   
    47    24    56 1   
    48    24    57 1   
    49    26    28 1   
    50    26    29 1   
    51    27    58 1   
    52    28    30 1   
    53    28    31 1   
    54    28    59 1   
    55    29    32 1   
    56    29    60 1   
    57    29    61 1   
    58    30    31 1   
    59    30    62 1   
    60    30    63 1   
    61    31    64 1   
    62    31    65 1   
    63    32    33 ar  
    64    32    34 ar  
    65    33    35 1   
    66    33    36 ar  
    67    34    37 ar  
    68    34    66 1   
    69    36    38 ar  
    70    36    67 1   
    71    37    38 ar  
    72    37    68 1   
    73    38    69 1   
@<TRIPOS>SUBSTRUCTURE
     1 BFX         1 TEMP              0 ****  ****    0 ROOT
