@<TRIPOS>MOLECULE
molecule
   50    52     1     0     0
SMALL
bcc


@<TRIPOS>ATOM
      1 CAT          0.0000     0.0000     0.0000 c3         1 BFZ      -0.093600
      2 CAS          1.5300     0.0000     0.0000 c3         1 BFZ       0.155800
      3 NAR          2.0200     0.0000     1.3860 n3         1 BFZ      -0.726600
      4 CAW          3.4390    -0.3770     1.4420 c3         1 BFZ       0.155800
      5 CAX          3.5970    -1.8330     1.0000 c3         1 BFZ      -0.093600
      6 CAQ          1.7960     1.3040     2.0230 c3         1 BFZ       0.136800
      7 CAP          1.9430     1.1630     3.5400 c3         1 BFZ       0.096000
      8 NAO          1.7350     2.4670     4.1740 n          1 BFZ      -0.376000
      9 C            0.4790     2.8400     4.4110 c          1 BFZ       0.687500
     10 O           -0.4290     2.1220     4.0500 o          1 BFZ      -0.612500
     11 CA           0.1580     4.1310     5.1140 c3         1 BFZ       0.043800
     12 N            0.6950     4.0770     6.4720 n2         1 BFZ      -0.573900
     13 CAN          2.8620     3.2120     4.4860 ca         1 BFZ       0.104600
     14 CAV          3.9020     3.2220     3.5540 ca         1 BFZ      -0.169000
     15 CAZ          5.0540     3.9380     3.7960 ca         1 BFZ      -0.068000
     16 CAY          5.1910     4.6580     4.9710 ca         1 BFZ      -0.043900
     17 Br           6.7750     5.6390     5.3000 br         1 BFZ      -0.086100
     18 CAU          4.1760     4.6610     5.9000 ca         1 BFZ      -0.052000
     19 CAM          2.9960     3.9360     5.6680 ca         1 BFZ      -0.210900
     20 CAF          1.9580     3.9890     6.7000 ce         1 BFZ       0.529500
     21 CAE          2.3970     3.9330     8.1140 ca         1 BFZ      -0.170900
     22 CAL          2.1860     5.0250     8.9570 ca         1 BFZ      -0.073000
     23 CAK          2.5970     4.9660    10.2710 ca         1 BFZ      -0.148000
     24 CAJ          3.2180     3.8290    10.7580 ca         1 BFZ      -0.092000
     25 CAC          3.4300     2.7430     9.9300 ca         1 BFZ      -0.169000
     26 CAD          3.0180     2.7850     8.6100 ca         1 BFZ       0.157900
     27 FAA          3.2210     1.7210     7.8030 f          1 BFZ      -0.131900
     28 HAT1        -0.3610    -0.4210    -0.9300 hc         1 BFZ       0.041200
     29 HAT2        -0.3610     1.0160     0.1000 hc         1 BFZ       0.041200
     30 HAT3        -0.3610    -0.5950     0.8300 hc         1 BFZ       0.041200
     31 HAS1         1.8910     0.8840    -0.5110 h1         1 BFZ       0.032200
     32 HAS2         1.8910    -0.8850    -0.5110 h1         1 BFZ       0.032200
     33 HAW1         4.0090     0.2650     0.7820 h1         1 BFZ       0.032200
     34 HAW2         3.8020    -0.2660     2.4570 h1         1 BFZ       0.032200
     35 HAQ1         2.5240     2.0160     1.6540 h1         1 BFZ       0.044700
     36 HAQ2         0.7980     1.6540     1.7880 h1         1 BFZ       0.044700
     37 HAX1         3.6100    -1.8820    -0.0820 hc         1 BFZ       0.041200
     38 HAX2         4.5270    -2.2290     1.3910 hc         1 BFZ       0.041200
     39 HAX3         2.7680    -2.4180     1.3790 hc         1 BFZ       0.041200
     40 HAP1         2.9370     0.8010     3.7740 h1         1 BFZ       0.077700
     41 HAP2         1.2060     0.4600     3.9100 h1         1 BFZ       0.077700
     42 HA1C        -0.9160     4.2630     5.1550 h1         1 BFZ       0.085200
     43 HA2C         0.6110     4.9570     4.5780 h1         1 BFZ       0.085200
     44 HAV          3.8020     2.6610     2.6330 ha         1 BFZ       0.153000
     45 HAZ          5.8500     3.9450     3.0610 ha         1 BFZ       0.149000
     46 HAU          4.2880     5.2260     6.8180 ha         1 BFZ       0.156000
     47 HAL          1.7010     5.9160     8.5790 ha         1 BFZ       0.146000
     48 HAK          2.4340     5.8140    10.9260 ha         1 BFZ       0.138000
     49 HAJ          3.5400     3.7910    11.7910 ha         1 BFZ       0.139000
     50 HAC          3.9150     1.8540    10.3170 ha         1 BFZ       0.149000
@<TRIPOS>BOND
     1     1     2 1
     2     2     3 1
     3     3     4 1
     4     3     6 1
     5     4     5 1
     6     6     7 1
     7     7     8 1
     8     8     9 1
     9     8    13 1
    10     9    10 2
    11     9    11 1
    12    11    12 1
    13    12    20 2
    14    13    14 ar
    15    13    19 ar
    16    14    15 ar
    17    15    16 ar
    18    16    17 1
    19    16    18 ar
    20    18    19 ar
    21    19    20 1
    22    20    21 1
    23    21    22 ar
    24    21    26 ar
    25    22    23 ar
    26    23    24 ar
    27    24    25 ar
    28    25    26 ar
    29    26    27 1
    30     1    28 1
    31     1    29 1
    32     1    30 1
    33     2    31 1
    34     2    32 1
    35     4    33 1
    36     4    34 1
    37     6    35 1
    38     6    36 1
    39     5    37 1
    40     5    38 1
    41     5    39 1
    42     7    40 1
    43     7    41 1
    44    11    42 1
    45    11    43 1
    46    14    44 1
    47    15    45 1
    48    18    46 1
    49    22    47 1
    50    23    48 1
    51    24    49 1
    52    25    50 1
@<TRIPOS>SUBSTRUCTURE
     1 BFZ         1 TEMP              0 ****  ****    0 ROOT
