@<TRIPOS>MOLECULE
molecule
   34    36     1     0     0
SMALL
bcc


@<TRIPOS>ATOM
      1 Br           0.0000     0.0000     0.0000 br         1 BG2       0.001800
      2 N1           6.2110     0.0000     1.3580 ns         1 BG2      -0.468400
      3 C2           6.3250     0.0000     0.0000 cc         1 BG2       0.454800
      4 N2           7.5770     0.0000    -0.5630 nz         1 BG2      -0.727600
      5 N3           5.2720     0.0010    -0.7850 nd         1 BG2      -0.542100
      6 C4           4.0320     0.0010    -0.2800 cd         1 BG2       0.039800
      7 C5           3.8500     0.0000     1.1070 cc         1 BG2       0.307800
      8 C6           4.9920     0.0000     1.9400 c          1 BG2       0.624000
      9 O6           4.8790    -0.0010     3.1550 o          1 BG2      -0.523500
     10 N7           2.5130     0.0010     1.3370 nc         1 BG2      -0.586000
     11 C8           1.8810     0.0010     0.1990 cd         1 BG2       0.537700
     12 N9           2.7780     0.0000    -0.8300 na         1 BG2      -0.137900
     13 C1'          2.4580     0.0010    -2.2590 c3         1 BG2       0.230800
     14 C2'          1.9730    -1.4000    -2.7100 c3         1 BG2       0.094100
     15 O2'          3.0780    -2.2360    -3.0580 oh         1 BG2      -0.573800
     16 C3'          1.1210    -1.0620    -3.9580 c3         1 BG2       0.099100
     17 O3'          1.8830    -1.2560    -5.1510 oh         1 BG2      -0.571800
     18 C4'          0.7650     0.4260    -3.7800 c3         1 BG2       0.121100
     19 O4'          1.3240     0.8530    -2.5260 os         1 BG2      -0.383600
     20 C5'         -0.7550     0.5980    -3.7570 c3         1 BG2       0.144400
     21 O5'         -1.0770     1.9900    -3.7100 oh         1 BG2      -0.591800
     22 HN2          7.4950     0.0590    -1.5590 hn         1 BG2       0.478800
     23 HN2A         8.0950     0.7860    -0.2240 hn         1 BG2       0.478800
     24 H1'          3.3130     0.3130    -2.8470 h2         1 BG2       0.115700
     25 H2'          1.3610    -1.8590    -1.9420 h1         1 BG2       0.067700
     26 HO2'         2.9260    -3.1090    -2.7370 ho         1 BG2       0.416000
     27 H3'          0.2220    -1.6660    -3.9740 h1         1 BG2       0.062700
     28 HO3'         1.3970    -1.7980    -5.7500 ho         1 BG2       0.418000
     29 H4'          1.1940     1.0050    -4.5890 h1         1 BG2       0.097700
     30 H5'         -1.1820     0.1590    -4.6500 h1         1 BG2       0.034700
     31 H5'A        -1.1610     0.1050    -2.8820 h1         1 BG2       0.034700
     32 HO5'        -1.9820     2.1110    -3.9440 ho         1 BG2       0.416000
     33 H23          8.0540    -0.8450    -0.3160 hn         1 BG2       0.478800
     34 HN1          7.0350    -0.0000     1.9270 hn         1 BG2       0.350500
@<TRIPOS>BOND
     1     1    11 1
     2     2     3 1
     3     2     8 1
     4     3     4 1
     5     3     5 2
     6     5     6 1
     7     6     7 2
     8     6    12 1
     9     7     8 1
    10     7    10 1
    11     8     9 2
    12    10    11 2
    13    11    12 1
    14    12    13 1
    15    13    14 1
    16    13    19 1
    17    14    15 1
    18    14    16 1
    19    16    17 1
    20    16    18 1
    21    18    19 1
    22    18    20 1
    23    20    21 1
    24     2    34 1
    25     4    22 1
    26     4    23 1
    27    13    24 1
    28    14    25 1
    29    15    26 1
    30    16    27 1
    31    17    28 1
    32    18    29 1
    33    20    30 1
    34    20    31 1
    35    21    32 1
    36    33     4 1
@<TRIPOS>SUBSTRUCTURE
     1 BG2         1 TEMP              0 ****  ****    0 ROOT
