@<TRIPOS>MOLECULE
BG3
   22    22     1     0     0
SMALL
bcc


@<TRIPOS>ATOM
      1 C1          0.3050    0.6230   -0.2700 c         1 BG3      0.900600
      2 C2          1.6170   -0.1780   -0.0590 c3        1 BG3      0.048500
      3 C3          1.9520   -0.2270    1.4540 c3        1 BG3     -0.063700
      4 C4          2.4690   -1.6430    1.6980 c3        1 BG3     -0.049400
      5 C5          2.0210   -2.4670    0.4840 c3        1 BG3     -0.008700
      6 C6          2.9410    0.8420    1.8410 c3        1 BG3     -0.075100
      7 O1         -0.7690    0.0140   -0.5450 o         1 BG3     -0.865800
      8 N1          1.6360   -1.5480   -0.5910 n3        1 BG3     -0.746200
      9 S1          3.2900   -3.6460   -0.0240 s6        1 BG3      1.413800
     10 O2          3.3780   -4.5120    1.1120 o         1 BG3     -0.759867
     11 O3          4.5080   -2.9590   -0.2470 o         1 BG3     -0.759867
     12 O4          2.7920   -4.3350   -1.1590 o         1 BG3     -0.759867
     13 O5          0.3690    1.8830   -0.1480 o         1 BG3     -0.865800
     14 H2          2.4350    0.3770   -0.6000 h1        1 BG3      0.044700
     15 H3          1.0040   -0.0680    2.0360 hc        1 BG3      0.038700
     16 H41         3.5870   -1.6550    1.7690 hc        1 BG3      0.028200
     17 H42         2.0600   -2.0710    2.6440 hc        1 BG3      0.028200
     18 H5          1.1390   -3.0920    0.8030 h2        1 BG3      0.037700
     19 H61         3.9170    0.6850    1.3200 hc        1 BG3      0.019367
     20 H62         3.1240    0.8310    2.9430 hc        1 BG3      0.019367
     21 H63         2.5340    1.8420    1.5480 hc        1 BG3      0.019367
     22 HN1         0.7070   -1.7780   -0.9050 hn        1 BG3      0.356800
@<TRIPOS>BOND
     1    1    2 1   
     2    1    7 1   
     3    1   13 1   
     4    2    3 1   
     5    2    8 1   
     6    2   14 1   
     7    3    4 1   
     8    3    6 1   
     9    3   15 1   
    10    4    5 1   
    11    4   16 1   
    12    4   17 1   
    13    5    8 1   
    14    5    9 1   
    15    5   18 1   
    16    6   19 1   
    17    6   20 1   
    18    6   21 1   
    19    8   22 1   
    20    9   10 1   
    21    9   11 1   
    22    9   12 1   
@<TRIPOS>SUBSTRUCTURE
     1 BG3         1 TEMP              0 ****  ****    0 ROOT
