@<TRIPOS>MOLECULE
BG4
   25    25     1     0     0
SMALL
bcc


@<TRIPOS>ATOM
      1 C1           0.0000     0.0000     0.0000 c          1 BG4       0.972600
      2 C2           1.4960     0.0000     0.0000 c3         1 BG4       0.024500
      3 C3           2.0680     0.0000     1.4210 c3         1 BG4      -0.031700
      4 C4           3.1370    -1.0870     1.3720 c3         1 BG4      -0.047400
      5 C5           2.5710    -2.0930     0.3820 c3         1 BG4       0.297700
      6 C6           2.6240     1.3520     1.8420 c3         1 BG4       0.014900
      7 N1           1.9550    -1.2420    -0.6370 n7         1 BG4      -0.633200
      8 O1          -0.4780     1.1450     0.5460 o          1 BG4      -0.895300
      9 N2           1.5780    -2.9660     1.0020 n3         1 BG4      -0.298100
     10 O2           1.2840    -3.9700    -0.0100 oh         1 BG4      -0.487300
     11 C7           2.1560    -3.7240     2.1090 c3         1 BG4       0.158100
     12 O3          -0.7020    -0.9020    -0.4330 o          1 BG4      -0.895300
     13 H2           1.8720     0.8550    -0.5490 h1         1 BG4       0.037700
     14 H3           1.2910    -0.3000     2.1130 hc         1 BG4       0.045700
     15 H41          4.0740    -0.6830     1.0090 hc         1 BG4       0.010200
     16 H42          3.2620    -1.5420     2.3470 hc         1 BG4       0.010200
     17 H5           3.3720    -2.6780    -0.0550 h2         1 BG4       0.011700
     18 H61          1.8160     2.0710     1.9040 hc         1 BG4      -0.003633
     19 H62          3.3510     1.6880     1.1120 hc         1 BG4      -0.003633
     20 H63          3.1000     1.2610     2.8110 hc         1 BG4      -0.003633
     21 HN1          1.1720    -1.7180    -1.0410 hn         1 BG4       0.311800
     22 HO2          0.4300    -4.3350     0.1490 ho         1 BG4       0.404000
     23 H71          1.6730    -4.6910     2.1750 h1         1 BG4      -0.000300
     24 H72          3.2170    -3.8610     1.9370 h1         1 BG4      -0.000300
     25 H73          2.0070    -3.1810     3.0340 h1         1 BG4      -0.000300
@<TRIPOS>BOND
     1     1     2 1   
     2     1     8 1   
     3     1    12 1   
     4     2     3 1   
     5     2     7 1   
     6     2    13 1   
     7     3     4 1   
     8     3     6 1   
     9     3    14 1   
    10     4     5 1   
    11     4    15 1   
    12     4    16 1   
    13     5     7 1   
    14     5     9 1   
    15     5    17 1   
    16     6    18 1   
    17     6    19 1   
    18     6    20 1   
    19     7    21 1   
    20     9    10 1   
    21     9    11 1   
    22    10    22 1   
    23    11    23 1   
    24    11    24 1   
    25    11    25 1   
@<TRIPOS>SUBSTRUCTURE
     1 BG4         1 TEMP              0 ****  ****    0 ROOT
