@<TRIPOS>MOLECULE
molecule
   22    22     1     0     0
SMALL
bcc


@<TRIPOS>ATOM
      1 C1           0.0000     0.0000     0.0000 c          1 BG5       0.909600
      2 C2           1.4960     0.0000     0.0000 c3         1 BG5       0.071500
      3 C3           2.0680     0.0000     1.4210 c3         1 BG5      -0.064700
      4 C4           3.1370    -1.0870     1.3720 c3         1 BG5      -0.124400
      5 C5           2.5710    -2.0930     0.3820 c3         1 BG5       0.383700
      6 C6           2.6240     1.3520     1.8420 c3         1 BG5      -0.075100
      7 N1           1.9550    -1.2420    -0.6370 n7         1 BG5      -0.760200
      8 O1          -0.4780     1.1450     0.5460 o          1 BG5      -0.841300
      9 N2           1.5780    -2.9660     1.0020 n7         1 BG5      -0.497700
     10 O2           1.3150    -4.0090     0.0260 oh         1 BG5      -0.436300
     11 O3          -0.7020    -0.9020    -0.4330 o          1 BG5      -0.841300
     12 H2           1.8720     0.8550    -0.5490 h1         1 BG5       0.035700
     13 H3           1.2910    -0.3000     2.1130 hc         1 BG5       0.079700
     14 H41          3.2610    -1.5420     2.3470 hc         1 BG5       0.029200
     15 H42          4.0740    -0.6830     1.0090 hc         1 BG5       0.029200
     16 H5           3.3720    -2.6780    -0.0550 h2         1 BG5       0.016700
     17 H61          3.1000     1.2610     2.8110 hc         1 BG5       0.025700
     18 H62          3.3510     1.6880     1.1120 hc         1 BG5       0.025700
     19 H63          1.8160     2.0710     1.9040 hc         1 BG5       0.025700
     20 HN1          2.6300    -1.0250    -1.3440 hn         1 BG5       0.320800
     21 HN2          1.9630    -3.3740     1.8310 hn         1 BG5       0.304800
     22 HO2          0.7600    -4.6670     0.4100 ho         1 BG5       0.384000
@<TRIPOS>BOND
     1     1     2 1
     2     1     8 1
     3     1    11 1
     4     2     3 1
     5     2     7 1
     6     2    12 1
     7     3     4 1
     8     3     6 1
     9     3    13 1
    10     4     5 1
    11     4    14 1
    12     4    15 1
    13     5     7 1
    14     5     9 1
    15     5    16 1
    16     6    17 1
    17     6    18 1
    18     6    19 1
    19     7    20 1
    20     9    10 1
    21     9    21 1
    22    10    22 1
@<TRIPOS>SUBSTRUCTURE
     1 BG5         1 TEMP              0 ****  ****    0 ROOT
