@<TRIPOS>MOLECULE
BG6
   27    27     1     0     0
SMALL
bcc


@<TRIPOS>ATOM
      1 C1          0.1610   -0.1470   -0.0930 c3        1 BG6      0.317900
      2 C2          1.6640   -0.1720    0.2360 c3        1 BG6      0.050100
      3 O1         -0.0290   -0.2210   -1.4920 oh        1 BG6     -0.649800
      4 O5         -0.4090    1.0890    0.2570 os        1 BG6     -0.451600
      5 C3          1.8910    0.1580    1.7200 c3        1 BG6      0.117100
      6 O2          2.2170   -1.4600   -0.0120 oh        1 BG6     -0.624800
      7 C4          1.1400    1.4580    2.1120 c3        1 BG6      0.171100
      8 O3          3.2800    0.3680    1.9270 oh        1 BG6     -0.586800
      9 C5         -0.3290    1.3600    1.6710 c3        1 BG6      0.057100
     10 O4          1.2840    1.6400    3.4910 oh        1 BG6     -0.669800
     11 C6         -1.0980    2.6920    1.9090 c3        1 BG6      0.235400
     12 O6         -2.2870    2.4740    2.5430 os        1 BG6     -0.558200
     13 P          -2.2300    2.8030    4.2550 p5        1 BG6      1.325900
     14 O1P        -3.6360    2.5730    4.7140 o         1 BG6     -0.917500
     15 O2P        -1.2080    1.7430    4.6250 o         1 BG6     -0.917500
     16 O3P        -1.6980    4.2050    4.2720 o         1 BG6     -0.917500
     17 HC1        -0.3740   -1.0210    0.3710 h2        1 BG6      0.060700
     18 HC2         2.2030    0.5810   -0.4050 h1        1 BG6      0.044700
     19 HO1        -0.2690    0.6620   -1.8040 ho        1 BG6      0.425000
     20 HC3         1.5320   -0.6910    2.3620 h1        1 BG6      0.051700
     21 HO2         1.8710   -1.7370   -0.8690 ho        1 BG6      0.398000
     22 HC4         1.6470    2.3180    1.5910 h1        1 BG6      0.026700
     23 HO3         3.6960   -0.4910    1.7900 ho        1 BG6      0.378000
     24 HC5        -0.8380    0.5270    2.2320 h1        1 BG6      0.088700
     25 HO4         0.3760    1.7390    3.9230 ho        1 BG6      0.521000
     26 HC61       -0.4340    3.3760    2.5140 h1        1 BG6      0.013200
     27 HC62       -1.2840    3.1540    0.8950 h1        1 BG6      0.013200
@<TRIPOS>BOND
     1    1    2 1   
     2    1    3 1   
     3    1    4 1   
     4    1   17 1   
     5    2    5 1   
     6    2    6 1   
     7    2   18 1   
     8    3   19 1   
     9    4    9 1   
    10    5    7 1   
    11    5    8 1   
    12    5   20 1   
    13    6   21 1   
    14    7    9 1   
    15    7   10 1   
    16    7   22 1   
    17    8   23 1   
    18    9   11 1   
    19    9   24 1   
    20   10   25 1   
    21   11   12 1   
    22   11   26 1   
    23   11   27 1   
    24   12   13 1   
    25   13   14 1   
    26   13   15 1   
    27   13   16 1   
@<TRIPOS>SUBSTRUCTURE
     1 BG6         1 TEMP              0 ****  ****    0 ROOT
