@<TRIPOS>MOLECULE
molecule
   27    27     1     0     0
SMALL
bcc


@<TRIPOS>ATOM
      1 C1           0.0000     0.0000     0.0000 c3         1 BG6       0.322900
      2 C2           1.5300     0.0000     0.0000 c3         1 BG6       0.110100
      3 O1          -0.4750    -0.0330    -1.3480 oh         1 BG6      -0.606800
      4 O5          -0.4830     1.1770     0.6440 os         1 BG6      -0.367600
      5 C3           2.0290     0.0000     1.4490 c3         1 BG6       0.106100
      6 O2           2.0090    -1.1670    -0.6710 oh         1 BG6      -0.615800
      7 C4           1.3770     1.1720     2.1910 c3         1 BG6       0.107100
      8 O3           3.4490     0.1490     1.4710 oh         1 BG6      -0.618800
      9 C5          -0.1420     1.0850     2.0240 c3         1 BG6       0.127100
     10 O4           1.7110     1.1070     3.5780 oh         1 BG6      -0.587800
     11 C6          -0.8020     2.2310     2.7900 c3         1 BG6       0.171400
     12 O6          -2.2210     2.1480     2.6420 os         1 BG6      -0.532200
     13 P           -2.8480     3.3790     3.4680 p5         1 BG6       1.152900
     14 O1P         -4.4530     3.3460     3.3450 o          1 BG6      -0.909833
     15 O2P         -2.4280     3.2560     5.0170 o          1 BG6      -0.909833
     16 O3P         -2.3370     4.6540     2.9180 o          1 BG6      -0.909833
     17 HC1         -0.3580    -0.8720     0.5340 h2         1 BG6       0.027700
     18 HC2          1.8910     0.8880    -0.5050 h1         1 BG6       0.062700
     19 HO1         -1.3450    -0.3960    -1.3660 ho         1 BG6       0.411000
     20 HC3          1.7490    -0.9310     1.9270 h1         1 BG6       0.050700
     21 HO2          2.5120    -0.9110    -1.4260 ho         1 BG6       0.397000
     22 HC4          1.7320     2.1050     1.7720 h1         1 BG6       0.057700
     23 HO3          3.8390    -0.6130     1.8650 ho         1 BG6       0.394000
     24 HC5         -0.4910     0.1370     2.4160 h1         1 BG6       0.044700
     25 HO4          2.3980     1.7250     3.7660 ho         1 BG6       0.399000
     26 HC61        -0.5440     2.1600     3.8400 h1         1 BG6       0.058700
     27 HC62        -0.4530     3.1770     2.3950 h1         1 BG6       0.058700
@<TRIPOS>BOND
     1     1     2 1
     2     1     3 1
     3     1     4 1
     4     1    17 1
     5     2     5 1
     6     2     6 1
     7     2    18 1
     8     3    19 1
     9     4     9 1
    10     5     7 1
    11     5     8 1
    12     5    20 1
    13     6    21 1
    14     7     9 1
    15     7    10 1
    16     7    22 1
    17     8    23 1
    18     9    11 1
    19     9    24 1
    20    10    25 1
    21    11    12 1
    22    11    26 1
    23    11    27 1
    24    12    13 1
    25    13    14 1
    26    13    15 1
    27    13    16 1
@<TRIPOS>SUBSTRUCTURE
     1 BG6         1 TEMP              0 ****  ****    0 ROOT
