@<TRIPOS>MOLECULE
BG7
   85    88     1     0     0
SMALL
bcc


@<TRIPOS>ATOM
      1 C1           0.0000     0.0000     0.0000 c3         1 BG7      -0.034700
      2 C2           1.5310     0.0000     0.0000 c3         1 BG7      -0.035400
      3 C3           2.0360     0.0000     1.4450 c3         1 BG7       0.151300
      4 C5           0.0610     1.1860     2.1960 c3         1 BG7       0.151300
      5 C6          -0.5040     1.2210     0.7750 c3         1 BG7      -0.035400
      6 C13         -0.5130     0.0610    -1.4410 c3         1 BG7      -0.099400
      7 C15         -0.1210    -1.2000    -2.1670 c          1 BG7       0.594100
      8 C21         -1.2280    -0.3350    -4.1760 c3         1 BG7       0.044000
      9 C22         -0.3640     0.2290    -5.3100 c3         1 BG7       0.046900
     10 C23          0.2900    -0.9170    -6.0410 cc         1 BG7      -0.239600
     11 C24          0.4150    -2.1720    -5.5440 cd         1 BG7      -0.330600
     12 C25         -0.0930    -2.5950    -4.1870 c3         1 BG7       0.157300
     13 C32          1.0770    -2.9540    -6.5000 cd         1 BG7       0.430800
     14 C39          0.9210     0.2570    -8.1620 c3         1 BG7      -0.018700
     15 C41          1.4250    -4.3910    -6.3650 ca         1 BG7      -0.075500
     16 C43          1.3890    -5.2270    -7.4800 ca         1 BG7      -0.071000
     17 C44          1.7140    -6.5620    -7.3490 ca         1 BG7      -0.060300
     18 C45          2.0750    -7.0710    -6.1150 ca         1 BG7      -0.202300
     19 C46          2.1120    -6.2460    -5.0060 ca         1 BG7      -0.045000
     20 C47          1.7940    -4.9080    -5.1260 ca         1 BG7      -0.105000
     21 C54          2.4220    -8.5300    -5.9780 c3         1 BG7       0.644200
     22 C62          1.6750    -7.4670    -8.5540 c3         1 BG7       0.082300
     23 C66          0.1740    -9.1170    -9.5350 c          1 BG7       0.595300
     24 C68         -1.0770    -9.8890    -9.5280 ce         1 BG7      -0.275200
     25 C70         -1.3840   -10.6680   -10.5620 c2         1 BG7      -0.029400
     26 C72         -0.5340   -10.6380   -11.8060 c3         1 BG7       0.040600
     27 C74         -2.5810   -11.5810   -10.4870 c3         1 BG7       0.040600
     28 C78         -0.3220     0.2970    -9.0510 c3         1 BG7      -0.057400
     29 C80         -0.2420     1.5080    -9.9840 c3         1 BG7       0.157800
     30 C84         -2.6450     1.7990   -10.0430 c3         1 BG7       0.182100
     31 C86         -1.2880     2.5470   -11.9040 c3         1 BG7       0.182100
     32 F56          2.7450    -8.8090    -4.6450 f          1 BG7      -0.206967
     33 F58          1.3260    -9.3100    -6.3640 f          1 BG7      -0.206967
     34 F60          3.5170    -8.8280    -6.7950 f          1 BG7      -0.206967
     35 N19         -0.4670    -1.3690    -3.4580 n          1 BG7      -0.170800
     36 N33          1.3350    -2.1860    -7.5400 nc         1 BG7      -0.635800
     37 N34          0.8440    -0.9010    -7.2670 na         1 BG7       0.522400
     38 N4           1.5280     1.1880     2.1420 n7         1 BG7      -0.584200
     39 N64          0.4280    -8.2350    -8.5470 ns         1 BG7      -0.197900
     40 N82         -1.4360     1.5470   -10.8390 n3         1 BG7      -0.542600
     41 O17          0.5070    -2.0620    -1.5900 o          1 BG7      -0.646100
     42 O76          0.9800    -9.2720   -10.4340 o          1 BG7      -0.663100
     43 H1          -0.3590    -0.9030     0.4790 hc         1 BG7       0.044700
     44 H2           1.8920     0.8860    -0.5080 hc         1 BG7       0.026450
     45 H3           1.8920    -0.8860    -0.5080 hc         1 BG7       0.026450
     46 H4           1.6830    -0.8910     1.9490 h1         1 BG7       0.004950
     47 H5           3.1190     0.0170     1.4470 h1         1 BG7       0.004950
     48 H6          -0.2790     0.2870     2.6960 h1         1 BG7       0.004950
     49 H7          -0.2800     2.0580     2.7400 h1         1 BG7       0.004950
     50 H8          -1.5860     1.2000     0.8160 hc         1 BG7       0.026450
     51 H9          -0.1730     2.1250     0.2780 hc         1 BG7       0.026450
     52 H10         -0.0790     0.9170    -1.9430 hc         1 BG7       0.031700
     53 H11         -1.5920     0.1540    -1.4360 hc         1 BG7       0.031700
     54 H12         -2.1010    -0.8020    -4.6170 h1         1 BG7       0.034700
     55 H13         -1.4440     0.4690    -3.4830 h1         1 BG7       0.034700
     56 H14         -1.0120     0.7490    -6.0050 hc         1 BG7       0.031200
     57 H15          0.4160     0.8400    -4.8710 hc         1 BG7       0.031200
     58 H16         -0.9820    -3.1980    -4.3250 h1         1 BG7       0.044200
     59 H17          0.7140    -3.0810    -3.6530 h1         1 BG7       0.044200
     60 H18          1.8060     0.1760    -8.7810 h1         1 BG7       0.039200
     61 H19          0.9740     1.1650    -7.5730 h1         1 BG7       0.039200
     62 H20          1.1060    -4.8300    -8.4470 ha         1 BG7       0.130000
     63 H21          2.3970    -6.6490    -4.0420 ha         1 BG7       0.125000
     64 H22          1.8230    -4.2630    -4.2560 ha         1 BG7       0.131000
     65 H23          1.7260    -6.8690    -9.4560 h1         1 BG7       0.042700
     66 H24          2.5190    -8.1460    -8.5230 h1         1 BG7       0.042700
     67 H25         -1.7480    -9.8250    -8.6800 ha         1 BG7       0.111000
     68 H26         -1.0170   -11.2130   -12.5870 hc         1 BG7       0.017700
     69 H27          0.4370   -11.0650   -11.5910 hc         1 BG7       0.017700
     70 H28         -0.4130    -9.6130   -12.1350 hc         1 BG7       0.017700
     71 H29         -2.7040   -11.9330    -9.4700 hc         1 BG7       0.017700
     72 H30         -3.4680   -11.0390   -10.7920 hc         1 BG7       0.017700
     73 H31         -2.4300   -12.4270   -11.1470 hc         1 BG7       0.017700
     74 H32         -1.2070     0.3770    -8.4310 hc         1 BG7       0.035200
     75 H33         -0.3750    -0.6100    -9.6400 hc         1 BG7       0.035200
     76 H34          0.6430     1.4270   -10.6040 h1         1 BG7       0.010200
     77 H35         -0.1890     2.4150    -9.3950 h1         1 BG7       0.010200
     78 H36         -3.4140     2.2210   -10.6790 h1         1 BG7       0.002367
     79 H37         -2.4140     2.4950    -9.2450 h1         1 BG7       0.002367
     80 H38         -2.9990     0.8670    -9.6180 h1         1 BG7       0.002367
     81 H39         -0.3890     2.3400   -12.4720 h1         1 BG7       0.002367
     82 H40         -1.2180     3.5350   -11.4650 h1         1 BG7       0.002367
     83 H41         -2.1480     2.5050   -12.5610 h1         1 BG7       0.002367
     84 H42          1.8970     1.2120     3.0730 hn         1 BG7       0.249800
     85 H44         -0.2420    -8.0940    -7.8170 hn         1 BG7       0.181500
@<TRIPOS>BOND
     1     1     2 1   
     2     1     5 1   
     3     1     6 1   
     4     1    43 1   
     5     2     3 1   
     6     2    44 1   
     7     2    45 1   
     8     3    38 1   
     9     3    46 1   
    10     3    47 1   
    11     4     5 1   
    12     4    38 1   
    13     4    48 1   
    14     4    49 1   
    15     5    50 1   
    16     5    51 1   
    17     6     7 1   
    18     6    52 1   
    19     6    53 1   
    20     7    35 1   
    21     7    41 2   
    22     8     9 1   
    23     8    35 1   
    24     8    54 1   
    25     8    55 1   
    26     9    10 1   
    27     9    56 1   
    28     9    57 1   
    29    10    11 2   
    30    10    37 1   
    31    11    12 1   
    32    11    13 1   
    33    12    35 1   
    34    12    58 1   
    35    12    59 1   
    36    13    15 1   
    37    13    36 2   
    38    14    28 1   
    39    14    37 1   
    40    14    60 1   
    41    14    61 1   
    42    15    16 ar  
    43    15    20 ar  
    44    16    17 ar  
    45    16    62 1   
    46    17    18 ar  
    47    17    22 1   
    48    18    19 ar  
    49    18    21 1   
    50    19    20 ar  
    51    19    63 1   
    52    20    64 1   
    53    21    32 1   
    54    21    33 1   
    55    21    34 1   
    56    22    39 1   
    57    22    65 1   
    58    22    66 1   
    59    23    24 1   
    60    23    39 1   
    61    23    42 2   
    62    24    25 2   
    63    24    67 1   
    64    25    26 1   
    65    25    27 1   
    66    26    68 1   
    67    26    69 1   
    68    26    70 1   
    69    27    71 1   
    70    27    72 1   
    71    27    73 1   
    72    28    29 1   
    73    28    74 1   
    74    28    75 1   
    75    29    40 1   
    76    29    76 1   
    77    29    77 1   
    78    30    40 1   
    79    30    78 1   
    80    30    79 1   
    81    30    80 1   
    82    31    40 1   
    83    31    81 1   
    84    31    82 1   
    85    31    83 1   
    86    36    37 1   
    87    38    84 1   
    88    39    85 1   
@<TRIPOS>SUBSTRUCTURE
     1 BG7         1 TEMP              0 ****  ****    0 ROOT
