@<TRIPOS>MOLECULE
molecule
   85    88     1     0     0
SMALL
bcc


@<TRIPOS>ATOM
      1 C1           0.0000     0.0000     0.0000 c3         1 BG7      -0.056700
      2 C2           1.5310     0.0000     0.0000 c3         1 BG7      -0.078400
      3 C3           2.0360     0.0000     1.4450 c3         1 BG7       0.160800
      4 C5           0.0610     1.1860     2.1960 c3         1 BG7       0.160800
      5 C6          -0.5040     1.2210     0.7750 c3         1 BG7      -0.078400
      6 C13         -0.5130     0.0610    -1.4410 c3         1 BG7      -0.153400
      7 C15         -0.1210    -1.2000    -2.1670 c          1 BG7       0.666100
      8 C21         -1.2280    -0.3350    -4.1760 c3         1 BG7       0.105000
      9 C22         -0.3640     0.2290    -5.3100 c3         1 BG7      -0.038100
     10 C23          0.2900    -0.9170    -6.0410 cc         1 BG7      -0.063600
     11 C24          0.4150    -2.1720    -5.5440 cc         1 BG7      -0.317600
     12 C25         -0.0930    -2.5950    -4.1870 c3         1 BG7       0.192300
     13 C32          1.0770    -2.9540    -6.5000 cc         1 BG7       0.396800
     14 C39          0.9210     0.2570    -8.1620 c3         1 BG7       0.071300
     15 C41          1.4250    -4.3910    -6.3650 ca         1 BG7      -0.084500
     16 C43          1.3890    -5.2270    -7.4800 ca         1 BG7      -0.096000
     17 C44          1.7140    -6.5620    -7.3490 ca         1 BG7      -0.070300
     18 C45          2.0750    -7.0710    -6.1150 ca         1 BG7      -0.166300
     19 C46          2.1120    -6.2460    -5.0060 ca         1 BG7      -0.085000
     20 C47          1.7940    -4.9080    -5.1260 ca         1 BG7      -0.116000
     21 C54          2.4220    -8.5300    -5.9780 c3         1 BG7       0.672200
     22 C62          1.6750    -7.4670    -8.5540 c3         1 BG7       0.142300
     23 C66          0.1740    -9.1170    -9.5350 c          1 BG7       0.636300
     24 C68         -1.0770    -9.8890    -9.5280 ce         1 BG7      -0.568200
     25 C70         -1.3840   -10.6680   -10.5620 c2         1 BG7       0.168600
     26 C72         -0.5340   -10.6380   -11.8060 c3         1 BG7      -0.108400
     27 C74         -2.5810   -11.5810   -10.4870 c3         1 BG7      -0.108400
     28 C78         -0.3220     0.2970    -9.0510 c3         1 BG7      -0.106400
     29 C80         -0.2420     1.5080    -9.9840 c3         1 BG7       0.163800
     30 C84         -2.6450     1.7990   -10.0430 c3         1 BG7       0.150100
     31 C86         -1.2880     2.5470   -11.9040 c3         1 BG7       0.150100
     32 F56          2.7450    -8.8090    -4.6450 f          1 BG7      -0.218967
     33 F58          1.3260    -9.3100    -6.3640 f          1 BG7      -0.218967
     34 F60          3.5170    -8.8280    -6.7950 f          1 BG7      -0.218967
     35 N19         -0.4670    -1.3690    -3.4580 n          1 BG7      -0.500800
     36 N33          1.3350    -2.1860    -7.5400 nd         1 BG7      -0.494800
     37 N34          0.8440    -0.9010    -7.2670 na         1 BG7       0.082400
     38 N4           1.5280     1.1880     2.1420 n7         1 BG7      -0.822200
     39 N64          0.4280    -8.2350    -8.5470 ns         1 BG7      -0.568900
     40 N82         -1.4360     1.5470   -10.8390 n3         1 BG7      -0.728600
     41 O17          0.5070    -2.0620    -1.5900 o          1 BG7      -0.609100
     42 O76          0.9800    -9.2720   -10.4340 o          1 BG7      -0.667100
     43 H1          -0.3590    -0.9030     0.4790 hc         1 BG7       0.067700
     44 H2           1.8920    -0.8860    -0.5080 hc         1 BG7       0.052450
     45 H3           1.8920     0.8860    -0.5080 hc         1 BG7       0.052450
     46 H4           3.1190     0.0170     1.4470 h1         1 BG7       0.032200
     47 H5           1.6830    -0.8910     1.9490 h1         1 BG7       0.032200
     48 H6          -0.2790     0.2870     2.6960 h1         1 BG7       0.032200
     49 H7          -0.2800     2.0580     2.7400 h1         1 BG7       0.032200
     50 H8          -0.1730     2.1250     0.2780 hc         1 BG7       0.052450
     51 H9          -1.5860     1.2000     0.8160 hc         1 BG7       0.052450
     52 H10         -1.5920     0.1540    -1.4360 hc         1 BG7       0.059700
     53 H11         -0.0790     0.9170    -1.9430 hc         1 BG7       0.059700
     54 H12         -1.4440     0.4690    -3.4830 h1         1 BG7       0.061700
     55 H13         -2.1010    -0.8020    -4.6170 h1         1 BG7       0.061700
     56 H14         -1.0120     0.7490    -6.0050 hc         1 BG7       0.065200
     57 H15          0.4160     0.8400    -4.8710 hc         1 BG7       0.065200
     58 H16         -0.9820    -3.1980    -4.3250 h1         1 BG7       0.073200
     59 H17          0.7140    -3.0810    -3.6530 h1         1 BG7       0.073200
     60 H18          1.8060     0.1760    -8.7810 h1         1 BG7       0.067200
     61 H19          0.9740     1.1650    -7.5730 h1         1 BG7       0.067200
     62 H20          1.1060    -4.8300    -8.4470 ha         1 BG7       0.156000
     63 H21          2.3970    -6.6490    -4.0420 ha         1 BG7       0.156000
     64 H22          1.8230    -4.2630    -4.2560 ha         1 BG7       0.154000
     65 H23          2.5190    -8.1460    -8.5230 h1         1 BG7       0.069200
     66 H24          1.7260    -6.8690    -9.4560 h1         1 BG7       0.069200
     67 H25         -1.0150    -8.9280   -10.0240 ha         1 BG7       0.266000
     68 H26         -0.4450    -9.6170   -12.1580 hc         1 BG7       0.068200
     69 H27          0.4500   -11.0290   -11.5810 hc         1 BG7       0.068200
     70 H28         -0.9980   -11.2450   -12.5740 hc         1 BG7       0.068200
     71 H29         -2.2670   -12.6030   -10.6640 hc         1 BG7       0.068200
     72 H30         -3.3040   -11.2900   -11.2400 hc         1 BG7       0.068200
     73 H31         -3.0310   -11.5060    -9.5050 hc         1 BG7       0.068200
     74 H32         -1.2070     0.3770    -8.4310 hc         1 BG7       0.064200
     75 H33         -0.3750    -0.6100    -9.6400 hc         1 BG7       0.064200
     76 H34         -0.1890     2.4150    -9.3950 h1         1 BG7       0.034200
     77 H35          0.6430     1.4270   -10.6040 h1         1 BG7       0.034200
     78 H36         -2.9970     0.8680    -9.6160 h1         1 BG7       0.033367
     79 H37         -3.4150     2.2190   -10.6790 h1         1 BG7       0.033367
     80 H38         -2.4140     2.4970    -9.2470 h1         1 BG7       0.033367
     81 H39         -2.1490     2.5060   -12.5600 h1         1 BG7       0.033367
     82 H40         -1.2160     3.5350   -11.4650 h1         1 BG7       0.033367
     83 H41         -0.3900     2.3390   -12.4730 h1         1 BG7       0.033367
     84 H42          1.8970     1.2120     3.0730 hn         1 BG7       0.351800
     85 H44         -0.2420    -8.0950    -7.8170 hn         1 BG7       0.337500
@<TRIPOS>BOND
     1    34    21 1
     2    33    21 1
     3    32    21 1
     4    21    18 1
     5    18    19 ar
     6    18    17 ar
     7    19    20 ar
     8    22    17 1
     9    22    39 1
    10    17    16 ar
    11    39    23 1
    12    20    15 ar
    13    16    15 ar
    14    23    42 2
    15    23    24 1
    16    15    13 1
    17    24    25 2
    18    27    25 1
    19    25    26 1
    20    13    36 2
    21    13    11 1
    22    36    37 1
    23    41     7 2
    24    12    11 1
    25    12    35 1
    26    11    10 2
    27     7    35 1
    28     7     6 1
    29    37    10 1
    30    37    14 1
    31    35     8 1
    32    10     9 1
    33    14    28 1
    34     2     3 1
    35     2     1 1
    36     6     1 1
    37    30    40 1
    38    29    28 1
    39    29    40 1
    40     3    38 1
    41     1     5 1
    42     8     9 1
    43    40    31 1
    44    38     4 1
    45     5     4 1
    46     1    43 1
    47     2    44 1
    48     2    45 1
    49     3    46 1
    50     3    47 1
    51     4    48 1
    52     4    49 1
    53     5    50 1
    54     5    51 1
    55     6    52 1
    56     6    53 1
    57     8    54 1
    58     8    55 1
    59     9    56 1
    60     9    57 1
    61    12    58 1
    62    12    59 1
    63    14    60 1
    64    14    61 1
    65    16    62 1
    66    19    63 1
    67    20    64 1
    68    22    65 1
    69    22    66 1
    70    24    67 1
    71    26    68 1
    72    26    69 1
    73    26    70 1
    74    27    71 1
    75    27    72 1
    76    27    73 1
    77    28    74 1
    78    28    75 1
    79    29    76 1
    80    29    77 1
    81    30    78 1
    82    30    79 1
    83    30    80 1
    84    31    81 1
    85    31    82 1
    86    31    83 1
    87    38    84 1
    88    39    85 1
@<TRIPOS>SUBSTRUCTURE
     1 BG7         1 TEMP              0 ****  ****    0 ROOT
