@<TRIPOS>MOLECULE
molecule
   37    38     1     0     0
SMALL
bcc


@<TRIPOS>ATOM
      1 C01          0.0000     0.0000     0.0000 c3         1 BG8       0.120100
      2 C02          1.5320     0.0000     0.0000 c3         1 BG8       0.089700
      3 C03          2.0350     0.0000     1.4460 c3         1 BG8       0.335900
      4 O04          1.5080    -1.1380     2.1320 os         1 BG8      -0.431600
      5 C05          0.0810    -1.1670     2.2060 c3         1 BG8       0.154100
      6 C06         -0.4990    -1.2140     0.7900 c3         1 BG8       0.102100
      7 N07          2.0210     1.1970    -0.6890 ns         1 BG8      -0.577900
      8 O08         -1.9260    -1.1850     0.8590 oh         1 BG8      -0.603800
      9 O09         -0.4780    -0.0720    -1.3440 oh         1 BG8      -0.591800
     10 C10         -0.3630    -2.4080     2.9820 c3         1 BG8       0.151400
     11 O11          3.4620    -0.0560     1.4550 oh         1 BG8      -0.554800
     12 O12          0.0820    -2.3080     4.3360 oh         1 BG8      -0.599800
     13 C13          3.2430     1.1950    -1.2570 c          1 BG8       0.677700
     14 O15          3.9390     0.2010    -1.1970 o          1 BG8      -0.577100
     15 C14          5.0020     2.4050    -2.5410 ca         1 BG8      -0.087500
     16 C16          3.7370     2.4030    -1.9520 ca         1 BG8      -0.141600
     17 C17          2.9390     3.5460    -2.0220 ca         1 BG8      -0.087500
     18 C18          3.4060     4.6700    -2.6720 ca         1 BG8      -0.138000
     19 C19          4.6610     4.6650    -3.2550 ca         1 BG8      -0.107000
     20 C20          5.4560     3.5350    -3.1890 ca         1 BG8      -0.138000
     21 H1          -0.3600     0.9080     0.4690 h1         1 BG8       0.044700
     22 H2           1.8920    -0.8870    -0.5070 h1         1 BG8       0.114700
     23 H3           1.7020     0.9040     1.9420 h2         1 BG8       0.021700
     24 H4          -0.2710    -0.2750     2.7090 h1         1 BG8       0.058700
     25 H5          -0.1740    -2.1220     0.2970 h1         1 BG8       0.065700
     26 H6           1.4310     2.0010    -0.7730 hn         1 BG8       0.309500
     27 H7          -2.2810    -1.8700     0.3180 ho         1 BG8       0.415000
     28 H8          -1.0710     0.6430    -1.5050 ho         1 BG8       0.409000
     29 H9           0.0650    -3.2920     2.5250 h1         1 BG8       0.037200
     30 H10         -1.4440    -2.4790     2.9620 h1         1 BG8       0.037200
     31 H11          3.7740     0.0070     2.3420 ho         1 BG8       0.413000
     32 H12         -0.2920    -3.0100     4.8420 ho         1 BG8       0.404000
     33 H14          1.9570     3.5520    -1.5660 ha         1 BG8       0.139500
     34 H15          2.7890     5.5580    -2.7270 ha         1 BG8       0.133500
     35 H16          5.0230     5.5500    -3.7650 ha         1 BG8       0.131000
     36 H17          6.4380     3.5370    -3.6480 ha         1 BG8       0.133500
     37 H13          5.6260     1.5210    -2.4900 ha         1 BG8       0.139500
@<TRIPOS>BOND
     1    12    10 1
     2    10     5 1
     3     4     5 1
     4     4     3 1
     5     5     6 1
     6     6     8 1
     7     6     1 1
     8    14    13 2
     9    11     3 1
    10     3     2 1
    11     2     1 1
    12     2     7 1
    13     9     1 1
    14    13     7 1
    15    13    16 1
    16    17    16 ar
    17    17    18 ar
    18    16    15 ar
    19    18    19 ar
    20    15    20 ar
    21    19    20 ar
    22     1    21 1
    23     2    22 1
    24     3    23 1
    25     5    24 1
    26     6    25 1
    27     7    26 1
    28     8    27 1
    29     9    28 1
    30    10    29 1
    31    10    30 1
    32    11    31 1
    33    12    32 1
    34    15    37 1
    35    17    33 1
    36    18    34 1
    37    19    35 1
    38    20    36 1
@<TRIPOS>SUBSTRUCTURE
     1 BG8         1 TEMP              0 ****  ****    0 ROOT
