@<TRIPOS>MOLECULE
BGE
   46    49     1     0     0
SMALL
bcc


@<TRIPOS>ATOM
      1 C15          0.0000     0.0000     0.0000 ca         1 BGE      -0.091000
      2 C17          0.0030     0.0110     2.3990 ca         1 BGE       0.005600
      3 C21         -2.1490     0.0240     3.3800 c3         1 BGE       0.094300
      4 C22         -2.8740     0.0850     4.7270 c3         1 BGE       0.212900
      5 C24         -1.0570    -1.0700     5.7790 c3         1 BGE       0.212900
      6 C01          0.6390     2.2120    -4.3750 ca         1 BGE      -0.278300
      7 C02          0.0740     2.2540    -3.1210 ca         1 BGE       0.455200
      8 N03          0.5640     1.5320    -2.1290 nb         1 BGE      -0.644000
      9 C04          1.6130     0.7400    -2.2900 ca         1 BGE       0.509200
     10 C05          2.2420     0.6380    -3.5240 ca         1 BGE      -0.310300
     11 C06          1.7490     1.3830    -4.5980 ca         1 BGE       0.099000
     12 C07          2.3850     1.3080    -5.9300 cc         1 BGE      -0.393600
     13 N08          2.7900     0.1680    -6.5860 na         1 BGE       0.264100
     14 C09          3.3170     0.5560    -7.7670 cc         1 BGE       0.210400
     15 N10          3.2520     1.8580    -7.8550 nd         1 BGE      -0.612000
     16 C11          2.6810     2.3520    -6.7510 cd         1 BGE       0.323600
     17 C12          2.4230     3.8090    -6.4620 c3         1 BGE      -0.003400
     18 N13          2.0890     0.0010    -1.2130 nu         1 BGE      -0.320300
     19 C14          1.3880     0.0000     0.0000 ca         1 BGE      -0.019400
     20 C16         -0.6910     0.0060     1.1960 ca         1 BGE      -0.127000
     21 C18          1.3920    -0.0010     2.3990 ca         1 BGE      -0.127000
     22 C19          2.0830     0.0000     1.2030 ca         1 BGE      -0.091000
     23 N20         -0.6970     0.0100     3.6110 nh         1 BGE      -0.358000
     24 O23         -2.4650    -1.0240     5.5320 os         1 BGE      -0.411600
     25 C25         -0.3120    -1.1410     4.4400 c3         1 BGE       0.094300
     26 H1          -0.5410    -0.0040    -0.9380 ha         1 BGE       0.115000
     27 H2          -2.4390    -0.8770     2.8550 h1         1 BGE       0.026450
     28 H3          -2.4120     0.8940     2.7900 h1         1 BGE       0.026450
     29 H4          -2.6210     1.0100     5.2310 h1         1 BGE       0.013450
     30 H5          -3.9440     0.0360     4.5630 h1         1 BGE       0.013450
     31 H6          -0.8220    -1.9480     6.3690 h1         1 BGE       0.013450
     32 H7          -0.7550    -0.1770     6.3120 h1         1 BGE       0.013450
     33 H9          -0.7850     2.8900    -2.9430 h4         1 BGE      -0.021900
     34 H10          3.0990    -0.0120    -3.6530 ha         1 BGE       0.115000
     35 H11          2.7090    -0.7720    -6.2520 hn         1 BGE       0.121700
     36 H12          3.7310    -0.1050    -8.5190 h5         1 BGE       0.023100
     37 H14          2.7120     4.0320    -5.4420 hc         1 BGE       0.010700
     38 H15          1.3690     4.0230    -6.5950 hc         1 BGE       0.010700
     39 H16          3.0040     4.4200    -7.1430 hc         1 BGE       0.010700
     40 H17          2.9140    -0.5570    -1.3140 hn         1 BGE       0.284800
     41 H18         -1.7750     0.0100     1.1960 ha         1 BGE       0.117500
     42 H19          1.9340     0.0010     3.3370 ha         1 BGE       0.117500
     43 H20          3.1660    -0.0050     1.2030 ha         1 BGE       0.115000
     44 H21          0.7560    -1.1150     4.6200 h1         1 BGE       0.026450
     45 H22         -0.5760    -2.0590     3.9290 h1         1 BGE       0.026450
     46 H8           0.2280     2.8060    -5.1820 ha         1 BGE       0.128000
@<TRIPOS>BOND
     1     1    19 ar  
     2     1    20 ar  
     3     1    26 1   
     4     2    20 ar  
     5     2    21 ar  
     6     2    23 1   
     7     3     4 1   
     8     3    23 1   
     9     3    27 1   
    10     3    28 1   
    11     4    24 1   
    12     4    29 1   
    13     4    30 1   
    14     5    24 1   
    15     5    25 1   
    16     5    31 1   
    17     5    32 1   
    18     6     7 ar  
    19     6    11 ar  
    20     6    46 1   
    21     7     8 ar  
    22     7    33 1   
    23     8     9 ar  
    24     9    10 ar  
    25     9    18 1   
    26    10    11 ar  
    27    10    34 1   
    28    11    12 1   
    29    12    13 1   
    30    12    16 2   
    31    13    14 1   
    32    13    35 1   
    33    14    15 2   
    34    14    36 1   
    35    15    16 1   
    36    16    17 1   
    37    17    37 1   
    38    17    38 1   
    39    17    39 1   
    40    18    19 1   
    41    18    40 1   
    42    19    22 ar  
    43    20    41 1   
    44    21    22 ar  
    45    21    42 1   
    46    22    43 1   
    47    23    25 1   
    48    25    44 1   
    49    25    45 1   
@<TRIPOS>SUBSTRUCTURE
     1 BGE         1 TEMP              0 ****  ****    0 ROOT
