@<TRIPOS>MOLECULE
BGF
   41    43     1     0     0
SMALL
bcc


@<TRIPOS>ATOM
      1 CA          0.3150   -0.0450   -0.1200 cc        1 BGF      0.179700
      2 CB          1.7040   -0.0410   -0.1190 cc        1 BGF     -0.197300
      3 CB'         2.1220   -0.0070    1.2550 cd        1 BGF     -0.197300
      4 CA'         0.9680    0.0090    2.0290 cd        1 BGF      0.179700
      5 O1         -0.1660   -0.0140    1.2000 os        1 BGF     -0.354800
      6 C1         -0.6560   -0.0770   -1.1840 cd        1 BGF      0.054000
      7 C2         -2.0340   -0.1390   -0.9150 cd        1 BGF     -0.107000
      8 C3         -2.9550   -0.1780   -1.9570 cc        1 BGF     -0.075000
      9 C4         -2.5050   -0.1460   -3.2840 cc        1 BGF     -0.172000
     10 C5         -1.1330   -0.0790   -3.5650 cc        1 BGF     -0.075000
     11 C6         -0.2160   -0.0500   -2.5200 cd        1 BGF     -0.107000
     12 C7         -3.4860   -0.1840   -4.4030 c2        1 BGF      0.506000
     13 N1         -4.4520   -1.1290   -4.3850 nh        1 BGF     -0.802100
     14 N2         -3.3720    0.7280   -5.3940 nh        1 BGF     -0.802100
     15 C1'         0.7530    0.0470    3.4530 cc        1 BGF      0.054000
     16 C2'        -0.5410    0.1210    3.9970 cc        1 BGF     -0.107000
     17 C3'        -0.7250    0.1660    5.3750 cd        1 BGF     -0.075000
     18 C4'         0.3870    0.1260    6.2270 cd        1 BGF     -0.172000
     19 C5'         1.6810    0.0470    5.6970 cd        1 BGF     -0.075000
     20 C6'         1.8620    0.0120    4.3190 cc        1 BGF     -0.107000
     21 C7'         0.1950    0.1700    7.7020 c2        1 BGF      0.506000
     22 N1'         0.8330   -0.7460    8.4640 nh        1 BGF     -0.802100
     23 N2'        -0.6100    1.1230    8.2220 nh        1 BGF     -0.802100
     24 HB          2.3690   -0.0610   -0.9820 ha        1 BGF      0.184000
     25 HB'         3.1550    0.0050    1.6020 ha        1 BGF      0.184000
     26 H2         -2.3850   -0.1560    0.1310 ha        1 BGF      0.170000
     27 H3         -4.0320   -0.2140   -1.7260 ha        1 BGF      0.156000
     28 H5         -0.7670   -0.0700   -4.6040 ha        1 BGF      0.156000
     29 H6          0.8630   -0.0040   -2.7440 ha        1 BGF      0.170000
     30 HN11       -5.1480   -1.2100   -5.0950 hn        1 BGF      0.485050
     31 HN12       -4.4610   -1.7940   -3.6400 hn        1 BGF      0.485050
     32 HN21       -2.6510    1.4180   -5.3340 hn        1 BGF      0.485050
     33 HN22       -3.9800    0.7540   -6.1840 hn        1 BGF      0.485050
     34 H2'        -1.4130    0.1450    3.3230 ha        1 BGF      0.170000
     35 H3'        -1.7490    0.2130    5.7810 ha        1 BGF      0.156000
     36 H5'         2.5650    0.0310    6.3570 ha        1 BGF      0.156000
     37 H6'         2.8830   -0.0430    3.9040 ha        1 BGF      0.170000
     38 H1'1        0.7670   -0.7680    9.4600 hn        1 BGF      0.485050
     39 H1'2        1.3910   -1.4420    8.0160 hn        1 BGF      0.485050
     40 H2'1       -1.0260    1.7910    7.6070 hn        1 BGF      0.485050
     41 H2'2       -0.7930    1.2090    9.1990 hn        1 BGF      0.485050
@<TRIPOS>BOND
     1    1    2 1
     2    1    5 1
     3    1    6 2
     4    2    3 2
     5    2   24 1
     6    3    4 1
     7    3   25 1
     8    4    5 1
     9    4   15 2
    10    6    7 1
    11    6   11 1
    12    7    8 2
    13    7   26 1
    14    8    9 1
    15    8   27 1
    16    9   10 1
    17    9   12 2
    18   10   11 2
    19   10   28 1
    20   11   29 1
    21   12   13 1
    22   12   14 1
    23   13   30 1
    24   13   31 1
    25   14   32 1
    26   14   33 1
    27   15   16 1
    28   15   20 1
    29   16   17 2
    30   16   34 1
    31   17   18 1
    32   17   35 1
    33   18   19 1
    34   18   21 2
    35   19   20 2
    36   19   36 1
    37   20   37 1
    38   21   22 1
    39   21   23 1
    40   22   38 1
    41   22   39 1
    42   23   40 1
    43   23   41 1
@<TRIPOS>SUBSTRUCTURE
     1 BGF         1 TEMP              0 ****  ****    0 ROOT
