@<TRIPOS>MOLECULE
BGG
   18    18     1     0     0
SMALL
bcc


@<TRIPOS>ATOM
      1 C1          0.0370    0.5060   -0.0500 ca        1 BGG     -0.127000
      2 C2          1.3840    0.7270    0.2320 ca        1 BGG     -0.143500
      3 C3          1.9570    0.1820    1.3800 ca        1 BGG     -0.161000
      4 C4          1.1770   -0.5860    2.2450 ca        1 BGG     -0.143500
      5 C5         -0.1700   -0.8090    1.9660 ca        1 BGG     -0.127000
      6 C6         -0.7510   -0.2640    0.8140 ca        1 BGG     -0.065300
      7 C7         -2.1990   -0.4820    0.4920 c3        1 BGG      0.186700
      8 O12        -2.7760   -1.4440    1.3390 os        1 BGG     -0.524900
      9 C14        -3.8440   -1.0360    2.1840 c         1 BGG      0.498100
     10 O15        -4.2760    0.1290    2.0190 o         1 BGG     -0.550000
     11 O16        -4.1680   -1.9650    2.9530 o         1 BGG     -0.550000
     12 H1         -0.4140    0.9380   -0.9540 ha        1 BGG      0.144500
     13 H2          1.9950    1.3340   -0.4510 ha        1 BGG      0.111000
     14 H3          3.0180    0.3570    1.6030 ha        1 BGG      0.107000
     15 H4          1.6250   -1.0150    3.1520 ha        1 BGG      0.111000
     16 H5         -0.8030   -1.4140    2.6380 ha        1 BGG      0.144500
     17 H71        -2.2780   -0.8840   -0.5580 h1        1 BGG      0.044200
     18 H72        -2.7440    0.5020    0.5500 h1        1 BGG      0.044200
@<TRIPOS>BOND
     1    1    2 ar  
     2    1    6 ar  
     3    1   12 1   
     4    2    3 ar  
     5    2   13 1   
     6    3    4 ar  
     7    3   14 1   
     8    4    5 ar  
     9    4   15 1   
    10    5    6 ar  
    11    5   16 1   
    12    6    7 1   
    13    7    8 1   
    14    7   17 1   
    15    7   18 1   
    16    8    9 1   
    17    9   10 1   
    18    9   11 1   
@<TRIPOS>SUBSTRUCTURE
     1 BGG         1 TEMP              0 ****  ****    0 ROOT
