@<TRIPOS>MOLECULE
molecule
   18    18     1     0     0
SMALL
bcc


@<TRIPOS>ATOM
      1 C1           0.0000     0.0000     0.0000 ca         1 BGG      -0.111000
      2 C2           1.3820     0.0000     0.0000 ca         1 BGG      -0.142500
      3 C3           2.0730     0.0000     1.1960 ca         1 BGG      -0.147000
      4 C4           1.3830     0.0010     2.3940 ca         1 BGG      -0.142500
      5 C5           0.0010     0.0020     2.3940 ca         1 BGG      -0.111000
      6 C6          -0.6910     0.0010     1.1980 ca         1 BGG      -0.058300
      7 C7          -2.1980     0.0010     1.1980 c3         1 BGG       0.201700
      8 O12         -2.6830    -1.3680     1.1980 os         1 BGG      -0.469900
      9 C14         -4.0160    -1.5440     1.1990 c          1 BGG       0.470100
     10 O15         -4.7560    -0.5810     1.1990 o          1 BGG      -0.581500
     11 O16         -4.5310    -2.7870     1.1990 o          1 BGG      -0.581500
     12 H1          -0.5420    -0.0000    -0.9380 ha         1 BGG       0.134000
     13 H2           1.9230    -0.0010    -0.9380 ha         1 BGG       0.114000
     14 H3           3.1570    -0.0000     1.1950 ha         1 BGG       0.110000
     15 H4           1.9260     0.0010     3.3320 ha         1 BGG       0.114000
     16 H5          -0.5410     0.0020     3.3320 ha         1 BGG       0.134000
     17 H71         -2.5590     0.5110     2.0820 h1         1 BGG       0.034700
     18 H72         -2.5590     0.5110     0.3140 h1         1 BGG       0.034700
@<TRIPOS>BOND
     1     1     2 ar
     2     1     6 ar
     3     1    12 1
     4     2     3 ar
     5     2    13 1
     6     3     4 ar
     7     3    14 1
     8     4     5 ar
     9     4    15 1
    10     5     6 ar
    11     5    16 1
    12     6     7 1
    13     7     8 1
    14     7    17 1
    15     7    18 1
    16     8     9 1
    17     9    10 1
    18     9    11 1
@<TRIPOS>SUBSTRUCTURE
     1 BGG         1 TEMP              0 ****  ****    0 ROOT
