@<TRIPOS>MOLECULE
molecule
   94   100     1     0     0
SMALL
bcc


@<TRIPOS>ATOM
      1 C1           0.0000     0.0000     0.0000 cx         1 BGJ      -0.120900
      2 C2           1.5300     0.0000     0.0000 cx         1 BGJ       0.009500
      3 C3           0.7640     0.0000     1.3250 cx         1 BGJ      -0.120900
      4 C9           1.9600     2.3100     0.5880 c3         1 BGJ       0.114300
      5 C12          4.3050     2.3170    -1.0550 c3         1 BGJ       0.151300
      6 C13          3.6500     1.0220    -0.5710 c3         1 BGJ       0.114300
      7 C22          4.6410     4.3140     2.1140 c3         1 BGJ      -0.117400
      8 C10          2.6160     3.6050     0.1050 c3         1 BGJ       0.151300
      9 C24          5.3180     4.0010     3.4500 c3         1 BGJ       0.066300
     10 C29          5.8060     7.0830     5.2820 cc         1 BGJ       0.403800
     11 C30          4.5830     6.6360     5.7990 cc         1 BGJ      -0.289600
     12 C31          4.2690     5.4680     5.1870 cd         1 BGJ      -0.082600
     13 C37          3.0200     4.6680     5.4630 c3         1 BGJ      -0.047100
     14 C38          2.4300     5.1200     6.8050 c3         1 BGJ       0.238800
     15 C40          3.7240     7.2910     6.8540 c3         1 BGJ       0.313100
     16 C46          6.5190     8.3250     5.6710 ca         1 BGJ      -0.074500
     17 C48          5.7950     9.4700     6.0070 ca         1 BGJ      -0.119000
     18 C49          6.4530    10.6280     6.3690 ca         1 BGJ      -0.143000
     19 C50          7.8350    10.6620     6.4040 ca         1 BGJ       0.052400
     20 C51          8.5720     9.5210     6.0710 ca         1 BGJ       0.015000
     21 C52          7.9090     8.3480     5.7080 ca         1 BGJ      -0.080000
     22 C61         10.0030     9.5550     6.1050 cg         1 BGJ      -0.113000
     23 C63         11.1780     9.5670     6.1210 ch         1 BGJ      -0.087000
     24 C65         12.5590    10.1570     6.5970 ca         1 BGJ      -0.004000
     25 C67         13.7150     9.1430     6.6640 ca         1 BGJ      -0.114500
     26 C68         15.0460     9.9860     7.1830 ca         1 BGJ      -0.108500
     27 C69         15.1920    11.3310     7.5170 ca         1 BGJ      -0.067300
     28 C70         14.0580    11.7400     7.3220 ca         1 BGJ      -0.108500
     29 C71         12.9070    11.5650     6.9950 ca         1 BGJ      -0.114500
     30 C78         16.7890    11.6180     7.6360 c3         1 BGJ       0.182100
     31 C82         18.3850    12.6950     6.6330 c3         1 BGJ       0.164100
     32 C84         19.0350    13.4290     5.4410 ca         1 BGJ      -0.109300
     33 C86         18.6050    14.4640     4.9010 ca         1 BGJ      -0.114000
     34 C87         19.4020    15.3460     3.4550 ca         1 BGJ      -0.129000
     35 C88         20.5100    14.4670     3.2840 ca         1 BGJ       0.152400
     36 C89         20.9140    13.6090     3.6920 ca         1 BGJ      -0.129000
     37 C90         19.8300    12.3450     4.4070 ca         1 BGJ      -0.114000
     38 C91          0.6610     7.5980     8.7030 c3         1 BGJ      -0.292300
     39 N11          4.0570     3.3840    -0.0750 n3         1 BGJ      -0.732600
     40 N26          5.2550     5.1790     4.3180 na         1 BGJ       0.055400
     41 N28          6.2140     6.2000     4.3920 nd         1 BGJ      -0.509800
     42 N39          2.4280     6.5890     6.8600 n3         1 BGJ      -0.844500
     43 N7           2.2080     1.2430    -0.3920 n3         1 BGJ      -0.690600
     44 N80         17.1910    12.2610     6.3950 n7         1 BGJ      -0.698200
     45 O13          0.0570     6.5730     6.3150 o          1 BGJ      -0.626300
     46 O15          1.3200     8.6990     6.3640 o          1 BGJ      -0.626300
     47 S99          1.0050     7.4330     6.9300 s6         1 BGJ       1.364900
     48 Cl59         8.6550    12.1220     6.8600 cl         1 BGJ      -0.103400
     49 Cl97        21.1640    15.2380     1.8350 cl         1 BGJ      -0.256400
     50 H1          -0.6480     0.8610    -0.1060 hc         1 BGJ       0.086950
     51 H2          -0.4590    -0.8250    -0.5320 hc         1 BGJ       0.086950
     52 H3           1.9360    -0.7730    -0.6420 h1         1 BGJ       0.101700
     53 H4           1.4330     0.6950     1.8170 hc         1 BGJ       0.086950
     54 H5           1.1220    -1.0220     1.3230 hc         1 BGJ       0.086950
     55 H6           2.3630     2.2100     1.5880 h1         1 BGJ       0.053950
     56 H7           0.9030     2.3460     0.3520 h1         1 BGJ       0.053950
     57 H8           5.3590     2.0720    -1.1120 h1         1 BGJ       0.061950
     58 H9           4.1240     2.8140    -2.0000 h1         1 BGJ       0.061950
     59 H10          3.6870     0.2430    -1.3230 h1         1 BGJ       0.053950
     60 H11          4.1290     0.6570     0.3290 h1         1 BGJ       0.053950
     61 H12          5.7660     3.0240     0.9830 h1         1 BGJ       0.028700
     62 H13          4.4390     2.0820     1.5240 h1         1 BGJ       0.028700
     63 H14          5.0440     4.8260     1.2480 hc         1 BGJ       0.093700
     64 H15          3.6030     4.3480     2.4210 hc         1 BGJ       0.093700
     65 H16          2.4210     4.1980    -0.7810 h1         1 BGJ       0.061950
     66 H17          2.5170     4.3280     0.9050 h1         1 BGJ       0.061950
     67 H18          4.8560     3.5620     4.3260 h1         1 BGJ       0.097200
     68 H19          6.3310     3.8860     3.0830 h1         1 BGJ       0.097200
     69 H20          2.4780     4.9590     4.5710 hc         1 BGJ       0.067700
     70 H21          3.4040     3.6600     5.5650 hc         1 BGJ       0.067700
     71 H22          1.4100     4.7800     6.9370 h1         1 BGJ       0.070200
     72 H23          3.1870     4.5380     7.3180 h1         1 BGJ       0.070200
     73 H24          3.8170     7.2890     7.9330 h1         1 BGJ       0.073200
     74 H25          3.3310     8.1800     6.3750 h1         1 BGJ       0.073200
     75 H26          4.8500     9.8780     5.6690 ha         1 BGJ       0.160000
     76 H27          5.7960    11.4830     6.4720 ha         1 BGJ       0.149000
     77 H28          8.6910     7.6120     5.5690 ha         1 BGJ       0.162000
     78 H29         13.5320     8.0880     6.8300 ha         1 BGJ       0.169000
     79 H30         15.8750     9.2940     7.2670 ha         1 BGJ       0.092000
     80 H31         14.1330    12.7740     7.6360 ha         1 BGJ       0.092000
     81 H32         12.0910    12.1000     6.5260 ha         1 BGJ       0.169000
     82 H33         16.6230    12.2530     8.4980 h1         1 BGJ       0.055700
     83 H34         17.4210    10.9290     8.1840 h1         1 BGJ       0.055700
     84 H35         19.2010    12.1850     7.1300 h1         1 BGJ       0.037700
     85 H36         18.2710    13.6360     7.1590 h1         1 BGJ       0.037700
     86 H37         18.3620    15.4190     5.3520 ha         1 BGJ       0.124500
     87 H38         18.9470    16.3270     3.5270 ha         1 BGJ       0.186500
     88 H39         21.7700    13.0360     3.3560 ha         1 BGJ       0.186500
     89 H40         20.1670    11.4150     4.8500 ha         1 BGJ       0.124500
     90 H41          1.5130     8.0770     9.1720 h1         1 BGJ       0.099367
     91 H42         -0.2490     8.0930     9.0210 h1         1 BGJ       0.099367
     92 H43          0.6750     6.8510     9.4880 h1         1 BGJ       0.099367
     93 H46         17.1960    11.5340     5.7080 hn         1 BGJ       0.360800
     94 C20          4.7080     3.0830     1.2070 c3         1 BGJ       0.100800
@<TRIPOS>BOND
     1     3     1 1
     2     3     2 1
     3     1     2 1
     4     2    43 1
     5     6    43 1
     6     6     5 1
     7    43     4 1
     8     4     8 1
     9     5    39 1
    10     8    39 1
    11    39    94 1
    12     7    94 1
    13     7     9 1
    14     9    40 1
    15    41    40 1
    16    41    10 2
    17    18    17 ar
    18    18    19 ar
    19    17    16 ar
    20    40    12 1
    21    48    19 1
    22    19    20 ar
    23    16    10 1
    24    16    21 ar
    25    10    11 1
    26    20    21 ar
    27    20    22 1
    28    22    23 3
    29    12    11 2
    30    12    13 1
    31    29    28 ar
    32    29    24 ar
    33    23    24 1
    34    11    15 1
    35    28    27 ar
    36    24    25 ar
    37    13    14 1
    38    49    35 1
    39    27    30 1
    40    27    26 ar
    41    25    26 ar
    42    15    42 1
    43    35    36 ar
    44    35    34 ar
    45    30    44 1
    46    36    37 ar
    47    14    42 1
    48    34    33 ar
    49    42    47 1
    50    37    32 ar
    51    33    32 ar
    52    32    31 1
    53    44    31 1
    54    47    46 2
    55    47    45 2
    56    47    38 1
    57     1    50 1
    58     1    51 1
    59     2    52 1
    60     3    53 1
    61     3    54 1
    62     4    55 1
    63     4    56 1
    64     5    57 1
    65     5    58 1
    66     6    59 1
    67     6    60 1
    68    94    61 1
    69    94    62 1
    70     7    63 1
    71     7    64 1
    72     8    65 1
    73     8    66 1
    74     9    67 1
    75     9    68 1
    76    13    69 1
    77    13    70 1
    78    14    71 1
    79    14    72 1
    80    15    73 1
    81    15    74 1
    82    17    75 1
    83    18    76 1
    84    21    77 1
    85    25    78 1
    86    26    79 1
    87    28    80 1
    88    29    81 1
    89    30    82 1
    90    30    83 1
    91    31    84 1
    92    31    85 1
    93    33    86 1
    94    34    87 1
    95    36    88 1
    96    37    89 1
    97    38    90 1
    98    38    91 1
    99    38    92 1
   100    44    93 1
@<TRIPOS>SUBSTRUCTURE
     1 BGJ         1 TEMP              0 ****  ****    0 ROOT
