@<TRIPOS>MOLECULE
BGJ
   94   100     1     0     0
SMALL
bcc


@<TRIPOS>ATOM
      1 C1           0.0000     0.0000     0.0000 cx         1 BGJ      -0.058900
      2 C2           1.5300     0.0000     0.0000 cx         1 BGJ      -0.045500
      3 C3           0.7640     0.0000     1.3250 cx         1 BGJ      -0.058900
      4 C9           1.9600     2.3100     0.5880 c3         1 BGJ       0.106800
      5 C12          4.3050     2.3170    -1.0550 c3         1 BGJ       0.146300
      6 C13          3.6500     1.0220    -0.5710 c3         1 BGJ       0.106800
      7 C22          4.6410     4.3140     2.1140 c3         1 BGJ      -0.074400
      8 C10          2.6160     3.6050     0.1050 c3         1 BGJ       0.146300
      9 C24          5.3180     4.0010     3.4500 c3         1 BGJ      -0.024700
     10 C29          5.8060     7.0830     5.2820 cc         1 BGJ       0.434800
     11 C30          4.5830     6.6360     5.7990 cc         1 BGJ      -0.298600
     12 C31          4.2690     5.4680     5.1870 cd         1 BGJ      -0.249600
     13 C37          3.0200     4.6680     5.4630 c3         1 BGJ       0.026900
     14 C38          2.4300     5.1200     6.8050 c3         1 BGJ       0.238800
     15 C40          3.7240     7.2910     6.8540 c3         1 BGJ       0.319100
     16 C46          6.5190     8.3250     5.6710 ca         1 BGJ      -0.061500
     17 C48          5.7950     9.4700     6.0070 ca         1 BGJ      -0.106000
     18 C49          6.4530    10.6280     6.3690 ca         1 BGJ      -0.124000
     19 C50          7.8350    10.6620     6.4040 ca         1 BGJ      -0.017600
     20 C51          8.5720     9.5210     6.0710 ca         1 BGJ       0.034000
     21 C52          7.9090     8.3480     5.7080 ca         1 BGJ      -0.061000
     22 C61         10.0030     9.5550     6.1050 cg         1 BGJ      -0.116000
     23 C63         11.1780     9.5670     6.1210 ch         1 BGJ      -0.092000
     24 C65         12.5590    10.1570     6.5970 ca         1 BGJ       0.021000
     25 C67         13.7150     9.1430     6.6640 ca         1 BGJ      -0.088500
     26 C68         15.0460     9.9860     7.1830 ca         1 BGJ      -0.083000
     27 C69         15.1920    11.3310     7.5170 ca         1 BGJ      -0.070300
     28 C70         14.0580    11.7400     7.3220 ca         1 BGJ      -0.083000
     29 C71         12.9070    11.5650     6.9950 ca         1 BGJ      -0.088500
     30 C78         16.7890    11.6180     7.6360 c3         1 BGJ       0.196100
     31 C82         18.3850    12.6950     6.6330 c3         1 BGJ       0.157100
     32 C84         19.0350    13.4290     5.4410 ca         1 BGJ      -0.131300
     33 C86         18.6050    14.4640     4.9010 ca         1 BGJ      -0.074500
     34 C87         19.4020    15.3460     3.4550 ca         1 BGJ      -0.104500
     35 C88         20.5100    14.4670     3.2840 ca         1 BGJ       0.122400
     36 C89         20.9140    13.6090     3.6920 ca         1 BGJ      -0.104500
     37 C90         19.8300    12.3450     4.4070 ca         1 BGJ      -0.074500
     38 C91          0.6610     7.5980     8.7030 c3         1 BGJ      -0.025300
     39 N11          4.0570     3.3840    -0.0750 n3         1 BGJ      -0.564600
     40 N26          5.2550     5.1790     4.3180 na         1 BGJ       0.465400
     41 N28          6.2140     6.2000     4.3920 nd         1 BGJ      -0.643800
     42 N39          2.4280     6.5890     6.8600 n3         1 BGJ      -0.580500
     43 N7           2.2080     1.2430    -0.3920 n3         1 BGJ      -0.510600
     44 N80         17.1910    12.2610     6.3950 n7         1 BGJ      -0.461200
     45 O13          0.0570     6.5730     6.3150 o          1 BGJ      -0.579300
     46 O15          1.3200     8.6990     6.3640 o          1 BGJ      -0.579300
     47 S99          1.0050     7.4330     6.9300 s6         1 BGJ       1.007900
     48 Cl59         8.6550    12.1220     6.8600 cl         1 BGJ      -0.023400
     49 Cl97        21.1640    15.2380     1.8350 cl         1 BGJ      -0.202400
     50 H1          -0.6480     0.8610    -0.1060 hc         1 BGJ       0.057950
     51 H2          -0.4590    -0.8250    -0.5320 hc         1 BGJ       0.057950
     52 H3           1.9360    -0.7730    -0.6420 h1         1 BGJ       0.083700
     53 H4           1.4330     0.6950     1.8170 hc         1 BGJ       0.057950
     54 H5           1.1220    -1.0220     1.3230 hc         1 BGJ       0.057950
     55 H6           2.3630     2.2100     1.5880 h1         1 BGJ       0.033700
     56 H7           0.9030     2.3460     0.3520 h1         1 BGJ       0.033700
     57 H8           5.3590     2.0720    -1.1120 h1         1 BGJ       0.031200
     58 H9           4.1240     2.8140    -2.0000 h1         1 BGJ       0.031200
     59 H10          3.6870     0.2430    -1.3230 h1         1 BGJ       0.033700
     60 H11          4.1290     0.6570     0.3290 h1         1 BGJ       0.033700
     61 H12          5.7660     3.0240     0.9830 h1         1 BGJ       0.011700
     62 H13          4.4390     2.0820     1.5240 h1         1 BGJ       0.011700
     63 H14          5.0440     4.8260     1.2480 hc         1 BGJ       0.068700
     64 H15          3.6030     4.3480     2.4210 hc         1 BGJ       0.068700
     65 H16          2.4210     4.1980    -0.7810 h1         1 BGJ       0.031200
     66 H17          2.5170     4.3280     0.9050 h1         1 BGJ       0.031200
     67 H18          4.8560     3.5620     4.3260 h1         1 BGJ       0.065700
     68 H19          6.3310     3.8860     3.0830 h1         1 BGJ       0.065700
     69 H20          2.4780     4.9590     4.5710 hc         1 BGJ       0.034700
     70 H21          3.4040     3.6600     5.5650 hc         1 BGJ       0.034700
     71 H22          1.4100     4.7800     6.9370 h1         1 BGJ       0.035200
     72 H23          3.1870     4.5380     7.3180 h1         1 BGJ       0.035200
     73 H24          3.8170     7.2890     7.9330 h1         1 BGJ       0.044700
     74 H25          3.3310     8.1800     6.3750 h1         1 BGJ       0.044700
     75 H26          4.8500     9.8780     5.6690 ha         1 BGJ       0.132000
     76 H27          5.7960    11.4830     6.4720 ha         1 BGJ       0.119000
     77 H28          8.6910     7.6120     5.5690 ha         1 BGJ       0.130000
     78 H29         13.5320     8.0880     6.8300 ha         1 BGJ       0.133500
     79 H30         15.8750     9.2940     7.2670 ha         1 BGJ       0.060000
     80 H31         14.1330    12.7740     7.6360 ha         1 BGJ       0.060000
     81 H32         12.0910    12.1000     6.5260 ha         1 BGJ       0.133500
     82 H33         16.6230    12.2530     8.4980 h1         1 BGJ       0.019700
     83 H34         17.4210    10.9290     8.1840 h1         1 BGJ       0.019700
     84 H35         19.2010    12.1850     7.1300 h1         1 BGJ       0.012200
     85 H36         18.2710    13.6360     7.1590 h1         1 BGJ       0.012200
     86 H37         18.3620    15.4190     5.3520 ha         1 BGJ       0.090000
     87 H38         18.9470    16.3270     3.5270 ha         1 BGJ       0.153000
     88 H39         21.7700    13.0360     3.3560 ha         1 BGJ       0.153000
     89 H40         20.1670    11.4150     4.8500 ha         1 BGJ       0.090000
     90 H41          1.5130     8.0770     9.1720 h1         1 BGJ       0.059700
     91 H42         -0.2490     8.0930     9.0210 h1         1 BGJ       0.059700
     92 H43          0.6750     6.8510     9.4880 h1         1 BGJ       0.059700
     93 H46         17.1960    11.5340     5.7080 hn         1 BGJ       0.251800
     94 C20          4.7080     3.0830     1.2070 c3         1 BGJ       0.087800
@<TRIPOS>BOND
     1     1     2 1   
     2     1     3 1   
     3     1    50 1   
     4     1    51 1   
     5     2     3 1   
     6     2    43 1   
     7     2    52 1   
     8     3    53 1   
     9     3    54 1   
    10     4     8 1   
    11     4    43 1   
    12     4    55 1   
    13     4    56 1   
    14     5     6 1   
    15     5    39 1   
    16     5    57 1   
    17     5    58 1   
    18     6    43 1   
    19     6    59 1   
    20     6    60 1   
    21     7     9 1   
    22     7    63 1   
    23     7    64 1   
    24     7    94 1   
    25     8    39 1   
    26     8    65 1   
    27     8    66 1   
    28     9    40 1   
    29     9    67 1   
    30     9    68 1   
    31    10    11 1   
    32    10    16 1   
    33    10    41 2   
    34    11    12 2   
    35    11    15 1   
    36    12    13 1   
    37    12    40 1   
    38    13    14 1   
    39    13    69 1   
    40    13    70 1   
    41    14    42 1   
    42    14    71 1   
    43    14    72 1   
    44    15    42 1   
    45    15    73 1   
    46    15    74 1   
    47    16    17 ar  
    48    16    21 ar  
    49    17    18 ar  
    50    17    75 1   
    51    18    19 ar  
    52    18    76 1   
    53    19    20 ar  
    54    19    48 1   
    55    20    21 ar  
    56    20    22 1   
    57    21    77 1   
    58    22    23 3   
    59    23    24 1   
    60    24    25 ar  
    61    24    29 ar  
    62    25    26 ar  
    63    25    78 1   
    64    26    27 ar  
    65    26    79 1   
    66    27    28 ar  
    67    27    30 1   
    68    28    29 ar  
    69    28    80 1   
    70    29    81 1   
    71    30    44 1   
    72    30    82 1   
    73    30    83 1   
    74    31    32 1   
    75    31    44 1   
    76    31    84 1   
    77    31    85 1   
    78    32    33 ar  
    79    32    37 ar  
    80    33    34 ar  
    81    33    86 1   
    82    34    35 ar  
    83    34    87 1   
    84    35    36 ar  
    85    35    49 1   
    86    36    37 ar  
    87    36    88 1   
    88    37    89 1   
    89    38    47 1   
    90    38    90 1   
    91    38    91 1   
    92    38    92 1   
    93    39    94 1   
    94    40    41 1   
    95    42    47 1   
    96    44    93 1   
    97    45    47 2   
    98    46    47 2   
    99    61    94 1   
   100    62    94 1   
@<TRIPOS>SUBSTRUCTURE
     1 BGJ         1 TEMP              0 ****  ****    0 ROOT
