@<TRIPOS>MOLECULE
molecule
   26    28     1     0     0
SMALL
bcc


@<TRIPOS>ATOM
      1 C1           0.0000     0.0000     0.0000 ca         1 BGK      -0.263300
      2 C2           1.3850     0.0000     0.0000 ca         1 BGK       0.448200
      3 C11          3.0360     0.1040     6.0860 ca         1 BGK       0.125100
      4 C12          3.6580     1.3360     5.9130 ca         1 BGK      -0.133500
      5 C13          5.0080     1.4650     6.1430 ca         1 BGK      -0.067000
      6 C14          5.7560     0.3540     6.5530 ca         1 BGK      -0.194600
      7 C15          5.1240    -0.8830     6.7260 ca         1 BGK      -0.067000
      8 C16          3.7730    -1.0010     6.4980 ca         1 BGK      -0.133500
      9 C17          7.1980     0.4870     6.8000 c          1 BGK       0.580500
     10 N3           2.0690     0.0000     1.1180 nb         1 BGK      -0.654000
     11 C4           1.4750    -0.0000     2.3250 ca         1 BGK       0.646300
     12 C5           0.0760     0.0000     2.3850 ca         1 BGK      -0.202400
     13 C6          -0.6710     0.0050     1.2100 ca         1 BGK      -0.039000
     14 N7           2.0480    -0.0060     3.5420 nc         1 BGK      -0.722700
     15 C8           1.2760    -0.0110     4.5740 cd         1 BGK       0.637500
     16 S9          -0.4110     0.0000     4.0770 ss         1 BGK      -0.067100
     17 O10          1.7040    -0.0180     5.8570 os         1 BGK      -0.291700
     18 O18          7.8430    -0.4770     7.1550 o          1 BGK      -0.523100
     19 H1          -0.5500     0.0000    -0.9330 ha         1 BGK       0.146000
     20 H2           1.9140    -0.0040    -0.9450 h4         1 BGK       0.032100
     21 H3           3.0800     2.1950     5.5930 ha         1 BGK       0.148000
     22 H4           5.4920     2.4240     6.0080 ha         1 BGK       0.149500
     23 H5           5.6970    -1.7450     7.0450 ha         1 BGK       0.149500
     24 H6           3.2830    -1.9580     6.6320 ha         1 BGK       0.148000
     25 H7           7.6790     1.4510     6.6920 h4         1 BGK       0.003200
     26 H8          -1.7540     0.0050     1.2430 ha         1 BGK       0.144000
@<TRIPOS>BOND
     1     7     8 ar
     2     7     6 ar
     3     9     6 1
     4     9    18 2
     5     8     3 ar
     6     6     5 ar
     7     3    17 1
     8     3     4 ar
     9     5     4 ar
    10    17    15 1
    11    15    14 2
    12    15    16 1
    13    14    11 1
    14    16    12 1
    15    11    12 ar
    16    11    10 ar
    17    12    13 ar
    18    10     2 ar
    19     2     1 ar
    20    13     1 ar
    21     1    19 1
    22     2    20 1
    23     4    21 1
    24     5    22 1
    25     7    23 1
    26     8    24 1
    27     9    25 1
    28    13    26 1
@<TRIPOS>SUBSTRUCTURE
     1 BGK         1 TEMP              0 ****  ****    0 ROOT
