@<TRIPOS>MOLECULE
BGN
   36    36     1     0     0
SMALL
bcc


@<TRIPOS>ATOM
      1 C1           0.0000     0.0000     0.0000 c3         1 BGN       0.381900
      2 C2           1.5280     0.0000     0.0000 c3         1 BGN      -0.030300
      3 C3           2.0310     0.0000     1.4470 c3         1 BGN       0.161100
      4 C4           1.3750     1.1670     2.1940 c3         1 BGN       0.135100
      5 C5          -0.1430     1.0790     2.0280 c3         1 BGN       0.162100
      6 C6          -0.8050     2.2230     2.7970 c3         1 BGN       0.223400
      7 C7           2.2490    -1.1630    -2.0170 c          1 BGN       0.575100
      8 C8           2.7530    -2.3920    -2.7260 c3         1 BGN      -0.096400
      9 C9           2.9290    -2.0880    -4.2140 c3         1 BGN      -0.014400
     10 C10          3.4410    -3.3360    -4.9340 c3         1 BGN       0.002900
     11 N2           2.0200    -1.1950    -0.6890 ns         1 BGN      -0.184900
     12 O1          -0.4760    -0.0280    -1.3470 oh         1 BGN      -0.553800
     13 O3           3.4510     0.1530     1.4700 oh         1 BGN      -0.576800
     14 O4           1.7090     1.0990     3.5810 oh         1 BGN      -0.586800
     15 O5          -0.4850     1.1740     0.6470 os         1 BGN      -0.390600
     16 O6          -2.2240     2.1380     2.6490 oh         1 BGN      -0.584800
     17 O7           2.0490    -0.1420    -2.6410 o          1 BGN      -0.621100
     18 H1          -0.3580    -0.8740     0.5310 h2         1 BGN      -0.014300
     19 H2           1.8880     0.8880    -0.5050 h1         1 BGN       0.092700
     20 H3           1.7550    -0.9330     1.9240 h1         1 BGN       0.010700
     21 H4           1.7280     2.1030     1.7780 h1         1 BGN       0.032700
     22 H5          -0.4900     0.1300     2.4180 h1         1 BGN       0.024700
     23 H61         -0.5470     2.1500     3.8470 h1         1 BGN      -0.001300
     24 H62         -0.4580     3.1710     2.4050 h1         1 BGN      -0.001300
     25 H81          3.7060    -2.6860    -2.3030 hc         1 BGN       0.024200
     26 H82          2.0400    -3.1980    -2.6030 hc         1 BGN       0.024200
     27 H91          1.9760    -1.7930    -4.6370 hc         1 BGN       0.028700
     28 H92          3.6430    -1.2820    -4.3360 hc         1 BGN       0.028700
     29 H101         3.5650    -3.1190    -5.9880 hc         1 BGN      -0.000967
     30 H102         4.3940    -3.6310    -4.5120 hc         1 BGN      -0.000967
     31 H103         2.7280    -4.1420    -4.8120 hc         1 BGN      -0.000967
     32 HN2          2.1850    -2.0360    -0.1740 hn         1 BGN       0.164500
     33 HO1         -1.4170    -0.0870    -1.3470 ho         1 BGN       0.397000
     34 HO3          3.8250    -0.4740     2.0660 ho         1 BGN       0.395000
     35 HO4          2.3780     1.7360     3.7750 ho         1 BGN       0.401000
     36 HO6         -2.6350     2.8090     3.1690 ho         1 BGN       0.390000
@<TRIPOS>BOND
     1     1     2 1   
     2     1    12 1   
     3     1    15 1   
     4     1    18 1   
     5     2     3 1   
     6     2    11 1   
     7     2    19 1   
     8     3     4 1   
     9     3    13 1   
    10     3    20 1   
    11     4     5 1   
    12     4    14 1   
    13     4    21 1   
    14     5     6 1   
    15     5    15 1   
    16     5    22 1   
    17     6    16 1   
    18     6    23 1   
    19     6    24 1   
    20     7     8 1   
    21     7    11 1   
    22     7    17 2   
    23     8     9 1   
    24     8    25 1   
    25     8    26 1   
    26     9    10 1   
    27     9    27 1   
    28     9    28 1   
    29    10    29 1   
    30    10    30 1   
    31    10    31 1   
    32    11    32 1   
    33    12    33 1   
    34    13    34 1   
    35    14    35 1   
    36    16    36 1   
@<TRIPOS>SUBSTRUCTURE
     1 BGN         1 TEMP              0 ****  ****    0 ROOT
