@<TRIPOS>MOLECULE
molecule
   58    61     1     0     0
SMALL
bcc


@<TRIPOS>ATOM
      1 C'           0.0000     0.0000     0.0000 c          1 BGO       0.656700
      2 N1          -4.0830     7.0070    -2.3080 ns         1 BGO      -0.477400
      3 C2          -2.8790     6.3720    -2.2530 cc         1 BGO       0.171800
      4 N2          -1.7330     7.1210    -2.1580 nz         1 BGO      -0.646600
      5 N3          -2.7820     5.0620    -2.2900 nd         1 BGO      -0.667100
      6 C4          -3.8720     4.2900    -2.3820 cd         1 BGO       0.105800
      7 C5          -5.1380     4.8840    -2.4410 cc         1 BGO       0.141800
      8 C6          -5.2280     6.2950    -2.4020 c          1 BGO       0.665000
      9 O6          -6.3100     6.8540    -2.4510 o          1 BGO      -0.671500
     10 N7          -6.0480     3.8820    -2.5300 nc         1 BGO      -0.634000
     11 C8          -5.4300     2.7380    -2.5290 cd         1 BGO       0.424400
     12 N9          -4.0830     2.9390    -2.4390 na         1 BGO      -0.217900
     13 PA          -4.9350    -3.5020    -3.5070 p5         1 BGO       1.424800
     14 PB          -6.5530    -4.5600    -5.7540 p5         1 BGO       1.288900
     15 C1'          1.4730     0.0000     0.0000 ca         1 BGO      -0.217600
     16 O1'         -0.6080    -0.1020     1.0470 o          1 BGO      -0.550000
     17 O1A         -4.0920    -4.7760    -2.9980 o          1 BGO      -0.834500
     18 C1B         -3.0510     1.9000    -2.4080 c3         1 BGO       0.243800
     19 O1B         -6.1960    -6.1300    -5.7210 o          1 BGO      -0.611833
     20 C2'          2.1800     0.0000     1.2130 ca         1 BGO       0.124600
     21 N2'          1.4940    -0.0010     2.4200 nu         1 BGO      -0.751600
     22 O2'         -1.6520     2.4370    -0.4640 oh         1 BGO      -0.595800
     23 O2A         -6.1430    -3.3400    -2.6660 o          1 BGO      -0.834500
     24 C2B         -2.6660     1.5550    -0.9470 c3         1 BGO       0.079100
     25 O2B         -6.7020    -4.0760    -7.2830 o          1 BGO      -0.611833
     26 C3'          3.5690    -0.0000     1.2000 ca         1 BGO      -0.258000
     27 O3'         -0.6730     0.1190    -1.1610 os         1 BGO      -0.397900
     28 O3A         -5.3750    -3.7270    -5.0400 os         1 BGO      -0.705800
     29 C3B         -2.1240     0.1110    -1.0860 c3         1 BGO       0.101100
     30 O3B         -7.8270    -4.3280    -5.0370 o          1 BGO      -0.611833
     31 C4'          4.2480    -0.0010    -0.0010 ca         1 BGO      -0.068000
     32 O4'         -3.5690     0.6540    -2.9240 os         1 BGO      -0.372600
     33 C4B         -2.7300    -0.3930    -2.4100 c3         1 BGO       0.126100
     34 C5'          3.5540     0.0010    -1.2010 ca         1 BGO      -0.188000
     35 C5B         -3.5640    -1.6510    -2.1540 c3         1 BGO       0.247400
     36 C6'          2.1770    -0.0050    -1.2080 ca         1 BGO      -0.017000
     37 CM'          2.2290     0.1230     3.6810 c3         1 BGO       0.227100
     38 HN1         -4.1040     8.0070    -2.2630 hn         1 BGO       0.288500
     39 HN2         -1.8100     7.9360    -2.7350 hn         1 BGO       0.385133
     40 HN2A        -0.9450     6.5720    -2.4380 hn         1 BGO       0.385133
     41 H8          -5.8910     1.7710    -2.6940 h5         1 BGO       0.097100
     42 H1B         -2.1720     2.2100    -2.9590 h2         1 BGO       0.083700
     43 HN2'         1.1260     0.5120     1.6430 hn         1 BGO       0.504800
     44 HO2'        -1.9240     2.8730     0.3270 ho         1 BGO       0.404000
     45 H2B         -3.5580     1.5520    -0.3310 h1         1 BGO       0.075700
     46 H3'          4.1200    -0.0010     2.1330 ha         1 BGO       0.128000
     47 H3B         -2.4550    -0.4580    -0.2260 h1         1 BGO       0.096700
     48 H4'          5.2940    -0.0910     0.2660 ha         1 BGO       0.123000
     49 H4B         -1.9420    -0.6210    -3.1180 h1         1 BGO       0.077700
     50 H5'          4.0810    -0.0450    -2.1460 ha         1 BGO       0.130000
     51 H5B         -2.8990    -2.3740    -1.6980 h1         1 BGO       0.035200
     52 H5BA        -4.3290    -1.3890    -1.4320 h1         1 BGO       0.035200
     53 H6'          1.6330    -0.0000    -2.1450 ha         1 BGO       0.163000
     54 HM'          3.0320    -0.6040     3.6890 h1         1 BGO       0.033700
     55 HM'A         2.6350     1.1240     3.7560 h1         1 BGO       0.033700
     56 HM'B         1.5620    -0.0590     4.5160 h1         1 BGO       0.033700
     57 O5'         -4.0260    -2.1790    -3.3990 os         1 BGO      -0.585200
     58 H23         -1.6050     7.3810    -1.2000 hn         1 BGO       0.385133
@<TRIPOS>BOND
     1     1    15 1
     2     1    16 2
     3     1    27 1
     4     2     3 1
     5     2     8 1
     6     3     4 1
     7     3     5 2
     8     5     6 1
     9     6     7 2
    10     6    12 1
    11     7     8 1
    12     7    10 1
    13     8     9 2
    14    10    11 2
    15    11    12 1
    16    12    18 1
    17    13    17 1
    18    13    23 1
    19    13    28 1
    20    13    57 1
    21    14    19 1
    22    14    25 1
    23    14    28 1
    24    14    30 1
    25    15    20 ar
    26    15    36 ar
    27    18    24 1
    28    18    32 1
    29    20    21 1
    30    20    26 ar
    31    21    37 1
    32    22    24 1
    33    24    29 1
    34    26    31 ar
    35    27    29 1
    36    29    33 1
    37    31    34 ar
    38    32    33 1
    39    33    35 1
    40    34    36 ar
    41    57    35 1
    42     2    38 1
    43     4    39 1
    44     4    40 1
    45    11    41 1
    46    18    42 1
    47    21    43 1
    48    22    44 1
    49    24    45 1
    50    26    46 1
    51    29    47 1
    52    31    48 1
    53    33    49 1
    54    34    50 1
    55    35    51 1
    56    35    52 1
    57    36    53 1
    58    37    54 1
    59    37    55 1
    60    37    56 1
    61    58     4 1
@<TRIPOS>SUBSTRUCTURE
     1 BGO         1 TEMP              0 ****  ****    0 ROOT
