@<TRIPOS>MOLECULE
molecule
   34    33     1     0     0
SMALL
bcc


@<TRIPOS>ATOM
      1 CB           0.0000     0.0000     0.0000 c3         1 BGT      -0.092400
      2 CG          -0.5100    -1.3060     0.6100 c3         1 BGT      -0.181400
      3 CD          -2.0170    -1.3060     0.6100 c          1 BGT       0.486100
      4 OE1         -2.6230    -0.3550     0.1660 o          1 BGT      -0.355100
      5 NE2         -2.6910    -2.3640     1.1040 nz         1 BGT      -0.684400
      6 CT           2.5510     2.4490    -2.7370 c3         1 BGT       0.159800
      7 C1           3.9980     2.7210    -2.3240 c3         1 BGT      -0.108767
      8 C2           1.6780     3.6490    -2.3580 c3         1 BGT      -0.108767
      9 C3           2.4840     2.2270    -4.2500 c3         1 BGT      -0.108767
     10 C            2.0330     1.2300    -0.7110 c          1 BGT       0.630100
     11 O            2.4060     2.1860    -0.0730 o          1 BGT      -0.510000
     12 OXT          2.0650     1.2640    -2.0520 os         1 BGT      -0.402900
     13 N            2.0200     0.0000     1.3850 nz         1 BGT      -0.805600
     14 CA           1.5300     0.0000     0.0000 c3         1 BGT       0.049500
     15 HB1         -0.3610     0.0880    -1.0180 hc         1 BGT       0.122200
     16 HB2         -0.3610     0.8370     0.5850 hc         1 BGT       0.122200
     17 HG1         -0.1490    -1.3950     1.6270 hc         1 BGT       0.090200
     18 HG2         -0.1490    -2.1430     0.0250 hc         1 BGT       0.090200
     19 HE21        -2.4350    -3.1890     0.5980 hn         1 BGT       0.492467
     20 HE22        -3.6750    -2.2070     1.0100 hn         1 BGT       0.492467
     21 H11          4.5140     1.7800    -2.1760 hc         1 BGT       0.064256
     22 H12          4.0110     3.2880    -1.4020 hc         1 BGT       0.064256
     23 H13          4.4950     3.2870    -3.1030 hc         1 BGT       0.064256
     24 H21          1.9980     4.0390    -1.3990 hc         1 BGT       0.064256
     25 H22          1.7770     4.4190    -3.1130 hc         1 BGT       0.064256
     26 H23          0.6430     3.3360    -2.2940 hc         1 BGT       0.064256
     27 H31          2.8420     3.1130    -4.7600 hc         1 BGT       0.064256
     28 H32          1.4590     2.0320    -4.5410 hc         1 BGT       0.064256
     29 H33          3.1040     1.3800    -4.5180 hc         1 BGT       0.064256
     30 HN1          2.9620     0.3370     1.4060 hn         1 BGT       0.470133
     31 HN2          1.4410     0.5940     1.9440 hn         1 BGT       0.470133
     32 HA           1.8910    -0.8850    -0.5110 hx         1 BGT       0.142700
     33 HE23        -2.4870    -2.4640     2.0790 hn         1 BGT       0.492467
     34 HN3          1.9880    -0.9310     1.7510 hn         1 BGT       0.470133
@<TRIPOS>BOND
     1     1     2 1
     2     1    14 1
     3     1    15 1
     4     1    16 1
     5     2     3 1
     6     2    17 1
     7     2    18 1
     8     3     4 2
     9     3     5 1
    10     5    19 1
    11     5    20 1
    12     6     7 1
    13     6     8 1
    14     6     9 1
    15     6    12 1
    16     7    21 1
    17     7    22 1
    18     7    23 1
    19     8    24 1
    20     8    25 1
    21     8    26 1
    22     9    27 1
    23     9    28 1
    24     9    29 1
    25    10    11 2
    26    10    12 1
    27    10    14 1
    28    13    14 1
    29    13    30 1
    30    13    31 1
    31    14    32 1
    32    33     5 1
    33    34    13 1
@<TRIPOS>SUBSTRUCTURE
     1 BGT         1 TEMP              0 ****  ****    0 ROOT
