@<TRIPOS>MOLECULE
BGU
   25    27     1     0     0
SMALL
bcc


@<TRIPOS>ATOM
      1 N2           0.0000     0.0000     0.0000 na         1 BGU       0.270700
      2 C3           1.3890     0.0000     0.0000 ca         1 BGU      -0.253200
      3 C7           2.3380     0.0000     1.0030 ca         1 BGU       0.024000
      4 C8           3.6910    -0.0000     0.6680 ca         1 BGU      -0.175600
      5 C14          4.0940    -0.0000    -0.6920 ca         1 BGU       0.022400
      6 C15          3.1320    -0.0000    -1.6950 ca         1 BGU       0.067000
      7 C4           1.7800    -0.0000    -1.3560 ca         1 BGU       0.079400
      8 N5           0.6420    -0.0000    -2.0960 nc         1 BGU      -0.508100
      9 C1          -0.4030    -0.0070    -1.3030 cd         1 BGU       0.346700
     10 N6          -1.7130    -0.0090    -1.7250 nv         1 BGU      -0.554800
     11 N13          5.4190     0.0010    -0.9860 nc         1 BGU      -0.347100
     12 C12          6.3280     0.0010    -0.0450 cd         1 BGU      -0.024200
     13 N16          7.6510     0.0010    -0.4150 nz         1 BGU       0.217400
     14 N11          6.0240     0.0020     1.2850 ns         1 BGU      -0.027400
     15 C9           4.7360    -0.0000     1.6980 c          1 BGU       0.634100
     16 O10          4.4530     0.0010     2.8830 o          1 BGU      -0.598500
     17 HN2         -0.5940    -0.0030     0.8050 hn         1 BGU       0.144700
     18 H7           2.0350    -0.1270     2.0350 ha         1 BGU       0.137000
     19 H15          3.4300     0.1000    -2.7320 ha         1 BGU       0.132000
     20 HN61        -2.1860     0.8570    -1.8900 hn         1 BGU       0.291800
     21 HN62        -2.1840    -0.8760    -1.8890 hn         1 BGU       0.291800
     22 H161         7.7190    -0.0100    -1.4130 hn         1 BGU       0.214800
     23 H162         8.1020    -0.8100    -0.0410 hn         1 BGU       0.214800
     24 HN11         6.7620     0.0020     1.9620 hn         1 BGU       0.184500
     25 H163         8.0960     0.8240    -0.0590 hn         1 BGU       0.214800
@<TRIPOS>BOND
     1     1     2 1   
     2     1     9 1   
     3     1    17 1   
     4     2     3 ar  
     5     2     7 ar  
     6     3     4 ar  
     7     3    18 1   
     8     4     5 ar  
     9     4    15 1   
    10     5     6 ar  
    11     5    11 1   
    12     6     7 ar  
    13     6    19 1   
    14     7     8 1   
    15     8     9 2   
    16     9    10 1   
    17    10    20 1   
    18    10    21 1   
    19    11    12 2   
    20    12    13 1   
    21    12    14 1   
    22    13    22 1   
    23    13    23 1   
    24    13    25 1   
    25    14    15 1   
    26    14    24 1   
    27    15    16 2   
@<TRIPOS>SUBSTRUCTURE
     1 BGU         1 TEMP              0 ****  ****    0 ROOT
