@<TRIPOS>MOLECULE
molecule
   25    27     1     0     0
SMALL
bcc


@<TRIPOS>ATOM
      1 N2           0.0000     0.0000     0.0000 na         1 BGU      -0.264300
      2 C3           1.3890     0.0000     0.0000 ca         1 BGU      -0.077200
      3 C7           2.3380     0.0000     1.0030 ca         1 BGU      -0.032000
      4 C8           3.6910    -0.0000     0.6680 ca         1 BGU      -0.171600
      5 C14          4.0940    -0.0000    -0.6920 ca         1 BGU       0.107400
      6 C15          3.1320    -0.0000    -1.6950 ca         1 BGU       0.003000
      7 C4           1.7800    -0.0000    -1.3560 ca         1 BGU       0.126400
      8 N5           0.6420    -0.0000    -2.0960 nc         1 BGU      -0.598100
      9 C1          -0.4030    -0.0070    -1.3030 cd         1 BGU       0.694700
     10 N6          -1.7130    -0.0090    -1.7250 nv         1 BGU      -1.003800
     11 N13          5.4190     0.0010    -0.9860 nc         1 BGU      -0.536100
     12 C12          6.3280     0.0010    -0.0450 cd         1 BGU       0.441800
     13 N16          7.6510     0.0010    -0.4150 nz         1 BGU      -0.730600
     14 N11          6.0240     0.0020     1.2850 ns         1 BGU      -0.486400
     15 C9           4.7360    -0.0000     1.6980 c          1 BGU       0.725100
     16 O10          4.4530     0.0010     2.8830 o          1 BGU      -0.559500
     17 HN2         -0.5940    -0.0030     0.8050 hn         1 BGU       0.322700
     18 H7           2.0350    -0.1270     2.0350 ha         1 BGU       0.172000
     19 H15          3.4300     0.1000    -2.7320 ha         1 BGU       0.175000
     20 HN61        -2.1860     0.8570    -1.8900 hn         1 BGU       0.463800
     21 HN62        -2.1840    -0.8760    -1.8890 hn         1 BGU       0.463800
     22 H161         7.7190    -0.0100    -1.4130 hn         1 BGU       0.474467
     23 H162         8.1020    -0.8100    -0.0410 hn         1 BGU       0.474467
     24 HN11         6.7620     0.0020     1.9620 hn         1 BGU       0.341500
     25 H163         8.0960     0.8240    -0.0590 hn         1 BGU       0.474467
@<TRIPOS>BOND
     1    10     9 1
     2     9     8 2
     3     9     1 1
     4     8     7 1
     5     1     2 1
     6     7     2 ar
     7     7     6 ar
     8     2     3 ar
     9     6     5 ar
    10     3     4 ar
    11     5     4 ar
    12     5    11 1
    13     4    15 1
    14    11    12 2
    15    15    16 2
    16    15    14 1
    17    12    14 1
    18    12    13 1
    19     1    17 1
    20     3    18 1
    21     6    19 1
    22    10    20 1
    23    10    21 1
    24    13    22 1
    25    13    23 1
    26    14    24 1
    27    25    13 1
@<TRIPOS>SUBSTRUCTURE
     1 BGU         1 TEMP              0 ****  ****    0 ROOT
