@<TRIPOS>MOLECULE
BGV
   42    43     1     0     0
SMALL
bcc


@<TRIPOS>ATOM
      1 CAA         1.0480   -2.8020    0.7750 c1        1 BGV     -0.010000
      2 CAB         2.8070    3.1800    1.4900 c3        1 BGV     -0.219000
      3 CAC         6.2780   -1.0620   -2.2910 c1        1 BGV     -0.061000
      4 CAD         3.7990   -2.7480    0.6100 c3        1 BGV     -0.223000
      5 OAE         1.1230    1.4000    1.6590 o         1 BGV     -0.352000
      6 CAH         6.2110   -1.2220    1.8950 c2        1 BGV     -0.255000
      7 CAI         6.4340   -1.0360    0.5770 c2        1 BGV     -0.067000
      8 CAJ         3.8800   -0.2910   -2.2160 c3        1 BGV     -0.165000
      9 OAK         3.1220    0.9340    0.7630 os        1 BGV     -0.288000
     10 OAL         2.2780   -2.0590   -2.4400 os        1 BGV     -0.263000
     11 CAM         2.2410    1.8110    1.3440 c2        1 BGV      0.311000
     12 CAN         0.9980   -1.9680   -0.4170 c3        1 BGV     -0.218000
     13 CAO         4.7550   -1.1620    2.1820 c2        1 BGV      0.263000
     14 CAP         1.3610   -2.7460   -1.6670 c2        1 BGV      0.312000
     15 CAQ         5.0020   -1.1110   -1.5880 c3        1 BGV     -0.176000
     16 CAR         2.4550   -0.7200   -1.9230 c3        1 BGV      0.039000
     17 CAS         5.1500   -0.7020   -0.1370 c3        1 BGV     -0.069000
     18 CAT         2.7530   -0.4630    0.7210 c3        1 BGV      0.061000
     19 CAU         1.8520   -0.6820   -0.4990 c3        1 BGV     -0.147000
     20 CAV         4.0520   -1.2600    0.8030 c3        1 BGV     -0.111000
     21 HAB         3.0890    3.3340    2.5610 hc        1 BGV      0.119667
     22 HABA        3.7130    3.3090    0.8510 hc        1 BGV      0.119667
     23 HABB        2.0310    3.9300    1.2040 hc        1 BGV      0.119667
     24 HACA        7.0190    0.9340   -1.7390 ha        1 BGV      0.013000
     25 HACB        6.4890    1.1800   -2.0930 ha        1 BGV      0.013000
     26 HAD         4.7710   -3.3020    0.6510 hc        1 BGV      0.103333
     27 HADA        3.3240   -2.9660   -0.3760 hc        1 BGV      0.103333
     28 HADB        3.1470   -3.1430    1.4310 hc        1 BGV      0.103333
     29 HAH         6.9390   -1.4070    2.6860 ha        1 BGV      0.166000
     30 HAI         7.3790   -1.0610    0.0260 ha        1 BGV      0.179000
     31 HAJ         5.0910    0.4310   -0.1090 hc        1 BGV      0.123000
     32 HAJA        3.9780    0.7820   -1.8990 hc        1 BGV      0.101500
     33 HAQ         3.9990   -0.3330   -3.3340 hc        1 BGV      0.101500
     34 HAR         1.7890   -0.0660   -2.5670 h1        1 BGV      0.094000
     35 HAS         4.7380   -2.2190   -1.6630 hc        1 BGV      0.174000
     36 HAT         2.1500   -0.6840    1.6530 h1        1 BGV      0.130000
     37 HAU         1.1440    0.2000   -0.4780 hc        1 BGV      0.124000
     38 HAA         0.9830   -2.2800    1.7420 ha        1 BGV      0.064000
     39 HAAA       -0.1040   -1.6970   -0.5130 hc        1 BGV      0.176000
     40 HAC         6.2230   -0.8830   -3.3770 ha        1 BGV      0.045000
     41 OAF         4.1910   -1.0750    3.2680 o         1 BGV     -0.277000
     42 OAG         0.9930   -3.8230   -2.1110 o         1 BGV     -0.258000
@<TRIPOS>BOND
     1    1   12 1   
     2    1   38 1   
     3    2   11 1   
     4    2   21 1   
     5    2   22 1   
     6    2   23 1   
     7    3   15 1   
     8    3   40 1   
     9    4   20 1   
    10    4   26 1   
    11    4   27 1   
    12    4   28 1   
    13    5   11 1   
    14    6    7 1   
    15    6   13 1   
    16    6   29 1   
    17    7   17 1   
    18    7   30 1   
    19    8   15 1   
    20    8   16 1   
    21    8   32 1   
    22    8   33 1   
    23    9   11 1   
    24    9   18 1   
    25   10   14 1   
    26   10   16 1   
    27   12   14 1   
    28   12   19 1   
    29   12   39 1   
    30   13   20 1   
    31   13   41 1   
    32   14   42 1   
    33   15   17 1   
    34   15   35 1   
    35   16   19 1   
    36   16   34 1   
    37   17   20 1   
    38   17   31 1   
    39   18   19 1   
    40   18   20 1   
    41   18   36 1   
    42   19   37 1   
    43   24   25 1   
@<TRIPOS>SUBSTRUCTURE
     1 BGV         1 TEMP              0 ****  ****    0 ROOT
