@<TRIPOS>MOLECULE
molecule
   42    44     1     0     0
SMALL
bcc


@<TRIPOS>ATOM
      1 CAA          0.0000     0.0000     0.0000 c2         1 BGV      -0.094000
      2 CAB          1.8150     2.5210     2.7250 c3         1 BGV      -0.138100
      3 CAC          6.4290    -1.0140    -2.5970 c3         1 BGV      -0.088100
      4 CAD          4.5230    -2.3980     0.6740 c3         1 BGV      -0.106100
      5 OAE          1.6350     0.1760     2.8620 o          1 BGV      -0.535000
      6 CAH          6.5190     0.0000     1.3340 ce         1 BGV      -0.255200
      7 CAI          6.5580     0.0000     0.0000 c2         1 BGV      -0.114200
      8 CAJ          4.0100    -1.4240    -2.4170 c3         1 BGV      -0.076400
      9 OAK          2.8310     0.9090     1.1560 os         1 BGV      -0.426900
     10 OAL          1.6910    -2.2370    -2.2550 os         1 BGV      -0.391900
     11 CAM          2.0870     1.1160     2.2530 c          1 BGV       0.632100
     12 CAN          0.8700    -0.7280    -0.6950 ce         1 BGV      -0.246400
     13 CAO          5.1690    -0.2950     1.8300 c          1 BGV       0.583300
     14 CAP          0.5740    -1.8680    -1.5860 c          1 BGV       0.732800
     15 CAQ          5.2830    -1.3860    -1.6550 c3         1 BGV      -0.081700
     16 CAR          2.8470    -1.7690    -1.5010 c3         1 BGV       0.134100
     17 CAS          5.1900    -0.3530    -0.5360 c3         1 BGV      -0.043500
     18 CAT          2.9440    -0.4590     0.6840 c3         1 BGV       0.178100
     19 CAU          2.3780    -0.5660    -0.7410 c3         1 BGV      -0.080500
     20 CAV          4.4230    -0.8720     0.6390 c3         1 BGV      -0.177000
     21 HAB          1.9710     3.2130     1.9070 hc         1 BGV       0.072033
     22 HABA         2.4880     2.7650     3.5390 hc         1 BGV       0.072033
     23 HABB         0.7900     2.5940     3.0700 hc         1 BGV       0.072033
     24 HACA         7.3630    -1.3860    -2.1950 hc         1 BGV       0.041367
     25 HACB         6.4820     0.0640    -2.6930 hc         1 BGV       0.041367
     26 HAD          5.4200    -2.6900     1.2060 hc         1 BGV       0.058700
     27 HADA         3.6550    -2.8060     1.1790 hc         1 BGV       0.058700
     28 HADB         4.5630    -2.7810    -0.3390 hc         1 BGV       0.058700
     29 HAH          7.3860    -0.3170     1.9010 ha         1 BGV       0.156000
     30 HAI          7.4470    -0.3410    -0.5160 ha         1 BGV       0.154000
     31 HAJ          3.8340    -0.4540    -2.8650 hc         1 BGV       0.063700
     32 HAJA         4.0840    -2.1740    -3.1960 hc         1 BGV       0.063700
     33 HAQ          5.4700    -2.3620    -1.2240 hc         1 BGV       0.071700
     34 HAR          3.1560    -2.5380    -0.8020 h1         1 BGV       0.081700
     35 HAS          4.7090     0.5420    -0.9130 hc         1 BGV       0.082700
     36 HAT          2.4000    -1.1240     1.3430 h1         1 BGV       0.104700
     37 HAU          2.6270     0.3300    -1.2970 hc         1 BGV       0.087700
     38 HAA          0.3500     0.8150     0.6210 ha         1 BGV       0.134000
     39 HAAA        -1.0590    -0.2220    -0.0560 ha         1 BGV       0.134000
     40 HAC          6.2540    -1.4550    -3.5710 hc         1 BGV       0.041367
     41 OAF          4.7400    -0.1150     2.9510 o          1 BGV      -0.490100
     42 OAG         -0.5140    -2.3970    -1.7040 o          1 BGV      -0.561500
@<TRIPOS>BOND
     1     1    12 2
     2     2    11 1
     3     3    15 1
     4     4    20 1
     5     5    11 2
     6    41    13 2
     7    42    14 2
     8     6     7 2
     9     6    13 1
    10     7    17 1
    11     8    15 1
    12     8    16 1
    13     9    11 1
    14     9    18 1
    15    10    14 1
    16    10    16 1
    17    12    14 1
    18    12    19 1
    19    13    20 1
    20    15    17 1
    21    16    19 1
    22    17    20 1
    23    18    19 1
    24    18    20 1
    25     1    38 1
    26     1    39 1
    27     2    21 1
    28     2    22 1
    29     2    23 1
    30     3    40 1
    31     3    24 1
    32     3    25 1
    33     4    26 1
    34     4    27 1
    35     4    28 1
    36     6    29 1
    37     7    30 1
    38     8    31 1
    39     8    32 1
    40    15    33 1
    41    16    34 1
    42    17    35 1
    43    18    36 1
    44    19    37 1
@<TRIPOS>SUBSTRUCTURE
     1 BGV         1 TEMP              0 ****  ****    0 ROOT
