@<TRIPOS>MOLECULE
molecule
   45    48     1     0     0
SMALL
bcc


@<TRIPOS>ATOM
      1 C1           0.0000     0.0000     0.0000 c3         1 BGW      -0.054900
      2 C2           1.5300     0.0000     0.0000 c3         1 BGW       0.153800
      3 C11          4.2350    -0.6890     3.6640 ca         1 BGW      -0.107500
      4 C12          3.9240     0.3810     2.8460 ca         1 BGW      -0.048300
      5 C13          4.0190     1.6730     3.3280 ca         1 BGW      -0.107500
      6 C14          4.4240     1.8980     4.6300 ca         1 BGW      -0.129500
      7 C15          4.7360     0.8250     5.4530 ca         1 BGW       0.057100
      8 C16          3.4820     0.1400     1.4260 c3         1 BGW       0.199100
      9 C18          1.1050     3.1220    10.8590 ca         1 BGW      -0.136000
     10 C19          2.3120     3.1350    11.5440 ca         1 BGW      -0.126000
     11 C20          3.4680     2.7260    10.9290 ca         1 BGW      -0.089000
     12 C21          1.0610     2.6910     9.5520 ca         1 BGW      -0.075000
     13 C22          2.2240     2.2740     8.9120 ca         1 BGW      -0.063100
     14 C23          3.4470     2.2860     9.5890 ca         1 BGW       0.153400
     15 C25          4.2150     1.4980     7.6170 cc         1 BGW       0.637500
     16 N3           2.0200     0.0000     1.3850 n3         1 BGW      -0.718600
     17 C4           1.5870    -1.2070     2.1020 c3         1 BGW       0.153800
     18 C5           0.0580    -1.2430     2.1640 c3         1 BGW      -0.054900
     19 C6          -0.5060    -1.2410     0.7400 c3         1 BGW      -0.172700
     20 C7          -2.0120    -1.2170     0.7950 c          1 BGW       0.895600
     21 O8          -2.6780    -2.2120     1.4000 o          1 BGW      -0.850300
     22 O9          -2.6190    -0.3000     0.2940 o          1 BGW      -0.850300
     23 C10          4.6390    -0.4700     4.9660 ca         1 BGW      -0.129500
     24 O17          5.1340     1.0440     6.7340 os         1 BGW      -0.281700
     25 N24          4.4720     1.8530     8.8270 nd         1 BGW      -0.629100
     26 S26          2.5000     1.6770     7.2770 ss         1 BGW      -0.135100
     27 H1          -0.3600    -0.0180    -1.0210 hc         1 BGW       0.055700
     28 H2          -0.3600     0.8900     0.5010 hc         1 BGW       0.055700
     29 H3           1.8900     0.8860    -0.5090 h1         1 BGW       0.016700
     30 H4           1.8900    -0.8860    -0.5090 h1         1 BGW       0.016700
     31 H5           4.1590    -1.7010     3.2830 ha         1 BGW       0.144500
     32 H6           3.7750     2.5100     2.6850 ha         1 BGW       0.144500
     33 H7           4.4980     2.9110     5.0070 ha         1 BGW       0.141500
     34 H8           3.9420    -0.7680     1.0540 h1         1 BGW       0.032700
     35 H9           3.7820     0.9760     0.8070 h1         1 BGW       0.032700
     36 H12          4.4030     2.7410    11.4760 ha         1 BGW       0.141000
     37 H13          0.1180     2.6820     9.0180 ha         1 BGW       0.141000
     38 H15          1.9460    -2.0840     1.5780 h1         1 BGW       0.016700
     39 H16          1.9880    -1.1910     3.1080 h1         1 BGW       0.016700
     40 H17         -0.2610    -2.1420     2.6780 hc         1 BGW       0.055700
     41 H18         -0.3020    -0.3700     2.6950 hc         1 BGW       0.055700
     42 H19         -0.1730    -2.1310     0.2200 hc         1 BGW       0.034700
     43 H21          4.8820    -1.3090     5.6060 ha         1 BGW       0.141500
     44 H10          0.1980     3.4470    11.3540 ha         1 BGW       0.132000
     45 H11          2.3420     3.4740    12.5720 ha         1 BGW       0.129000
@<TRIPOS>BOND
     1     5     6 ar
     2     5     4 ar
     3     8     4 1
     4     8    16 1
     5     6     7 ar
     6     2    16 1
     7     2     1 1
     8     4     3 ar
     9    16    17 1
    10     1    19 1
    11     7    24 1
    12     7    23 ar
    13     3    23 ar
    14    17    18 1
    15    18    19 1
    16    24    15 1
    17    19    20 1
    18    15    25 2
    19    15    26 1
    20    25    14 1
    21    20    22 1
    22    20    21 1
    23    26    13 1
    24    14    11 ar
    25    14    13 ar
    26    11    10 ar
    27    13    12 ar
    28    10     9 ar
    29    12     9 ar
    30     1    27 1
    31     1    28 1
    32     2    29 1
    33     2    30 1
    34     3    31 1
    35     5    32 1
    36     6    33 1
    37     8    34 1
    38     8    35 1
    39     9    44 1
    40    10    45 1
    41    11    36 1
    42    12    37 1
    43    17    38 1
    44    17    39 1
    45    18    40 1
    46    18    41 1
    47    19    42 1
    48    23    43 1
@<TRIPOS>SUBSTRUCTURE
     1 BGW         1 TEMP              0 ****  ****    0 ROOT
