@<TRIPOS>MOLECULE
molecule
   17    17     1     0     0
SMALL
bcc


@<TRIPOS>ATOM
      1 C1           0.0000     0.0000     0.0000 c          1 BGX       0.885600
      2 C2           1.4940     0.0000     0.0000 c3         1 BGX       0.133500
      3 C3           2.0790     0.0000     1.4440 c3         1 BGX      -0.002500
      4 C4           2.8130    -1.3240     1.5180 c2         1 BGX      -0.387200
      5 C5           2.6880    -1.9740     0.3580 c2         1 BGX       0.088000
      6 C6           3.0250     1.1730     1.6730 c3         1 BGX      -0.069100
      7 O1          -0.7020    -0.9150    -0.4060 o          1 BGX      -0.848300
      8 N1           1.9490    -1.2670    -0.5360 nu         1 BGX      -0.785000
      9 O2          -0.4790     1.1600     0.5100 o          1 BGX      -0.848300
     10 HC2          1.8890     0.8270    -0.5780 h1         1 BGX       0.043700
     11 HC3          1.2740     0.0170     2.1690 hc         1 BGX       0.068700
     12 HC4          2.8390    -1.8770     2.4490 ha         1 BGX       0.118000
     13 HC5          3.1220    -2.9450     0.1550 h4         1 BGX       0.116000
     14 HC61         2.4770     2.1030     1.5770 hc         1 BGX       0.019033
     15 HC62         3.4500     1.1060     2.6670 hc         1 BGX       0.019033
     16 HC63         3.8200     1.1450     0.9380 hc         1 BGX       0.019033
     17 HN1          1.7430    -1.5850    -1.4630 hn         1 BGX       0.429800
@<TRIPOS>BOND
     1     1     2 1
     2     1     7 1
     3     1     9 1
     4     2     3 1
     5     2     8 1
     6     2    10 1
     7     3     4 1
     8     3     6 1
     9     3    11 1
    10     4     5 2
    11     4    12 1
    12     5     8 1
    13     5    13 1
    14     6    14 1
    15     6    15 1
    16     6    16 1
    17     8    17 1
@<TRIPOS>SUBSTRUCTURE
     1 BGX         1 TEMP              0 ****  ****    0 ROOT
