@<TRIPOS>MOLECULE
molecule
   85    89     1     0     0
SMALL
bcc


@<TRIPOS>ATOM
      1 C13          0.0000     0.0000     0.0000 c3         1 BGY       0.163800
      2 C15          1.5300     0.0000     0.0000 c3         1 BGY      -0.107400
      3 C17          2.0390     0.0000     1.4430 c3         1 BGY       0.072300
      4 C22          5.5830    -0.7350     1.4460 cc         1 BGY       0.404800
      5 C23          5.5840     0.6660     1.4480 cd         1 BGY      -0.314600
      6 C24          4.2960     1.0880     1.4410 cc         1 BGY      -0.059600
      7 C30          3.8720     2.5360     1.4250 c3         1 BGY      -0.037100
      8 C31          5.0540     3.4030     1.8720 c3         1 BGY       0.109000
      9 C33          6.7740     1.5960     1.4560 c3         1 BGY       0.191300
     10 C1          -0.1470    -1.2580    -2.0640 c3         1 BGY       0.121300
     11 C3          -1.9390     0.2390    -1.4310 c3         1 BGY       0.121300
     12 C39          6.7820    -1.6100     1.4470 ca         1 BGY      -0.113500
     13 C4          -2.3960     0.2890    -2.8940 c3         1 BGY       0.139900
     14 C41          7.9320    -1.2210     0.7630 ca         1 BGY      -0.095000
     15 C42          9.0440    -2.0380     0.7660 ca         1 BGY      -0.123000
     16 C43          9.0190    -3.2420     1.4490 ca         1 BGY       0.054400
     17 C44          7.8790    -3.6330     2.1300 ca         1 BGY       0.048900
     18 C45          6.7630    -2.8200     2.1370 ca         1 BGY      -0.067000
     19 C56          6.9120     3.7610     0.3140 c          1 BGY       0.666100
     20 C58          6.3820     5.1450     0.0410 c3         1 BGY      -0.154400
     21 C6          -0.6220    -1.1930    -3.5180 c3         1 BGY       0.139900
     22 C60          7.2870     5.8470    -0.9730 c3         1 BGY      -0.056700
     23 C62          6.6810     7.2020    -1.3450 c3         1 BGY      -0.101400
     24 C63          7.5720     7.8870    -2.3860 c3         1 BGY       0.117000
     25 C65          9.5860     6.7290    -1.3890 c3         1 BGY       0.117000
     26 C66          8.6740     6.0570    -0.3590 c3         1 BGY      -0.101400
     27 C81          9.7550    11.4950    -2.1640 c3         1 BGY       0.177800
     28 C83         11.0300    11.3630    -2.9990 c3         1 BGY      -0.106433
     29 C85         10.1270    11.7680    -0.7050 c3         1 BGY      -0.106433
     30 C87          8.9110    12.6540    -2.6990 c3         1 BGY      -0.106433
     31 I54          7.8500    -5.4570     3.1590 i          1 BGY      -0.142900
     32 N19          3.5050    -0.0010     1.4420 na         1 BGY       0.080400
     33 N2          -0.4900    -0.0000    -1.3850 n3         1 BGY      -0.727600
     34 N21          4.3280    -1.1370     1.4490 nd         1 BGY      -0.498800
     35 N32          6.2710     2.9530     1.1820 n          1 BGY      -0.495800
     36 N64          8.9420     7.9620    -1.8600 n          1 BGY      -0.481800
     37 O5          -2.0270    -0.9300    -3.5450 os         1 BGY      -0.423600
     38 O73          7.9150     3.3740    -0.2470 o          1 BGY      -0.610100
     39 O77         10.7280     9.1900    -1.3740 o          1 BGY      -0.620000
     40 O79          8.9920    10.2620    -2.2460 os         1 BGY      -0.439900
     41 Cl2         10.4220    -4.2650     1.4500 cl         1 BGY      -0.086400
     42 H1          -0.3610     0.8850     0.5110 h1         1 BGY       0.035200
     43 H2          -0.3610    -0.8840     0.5110 h1         1 BGY       0.035200
     44 H3           1.8910     0.8850    -0.5110 hc         1 BGY       0.065700
     45 H4           1.8910    -0.8850    -0.5110 hc         1 BGY       0.065700
     46 H5           1.6780     0.8850     1.9530 h1         1 BGY       0.066200
     47 H6           1.6780    -0.8840     1.9530 h1         1 BGY       0.066200
     48 H7           3.0410     2.6770     2.1050 hc         1 BGY       0.061200
     49 H8           3.5770     2.8150     0.4200 hc         1 BGY       0.061200
     50 H9           5.1960     3.2590     2.9360 h1         1 BGY       0.061700
     51 H10          4.8550     4.4260     1.5750 h1         1 BGY       0.061700
     52 H11          7.4750     1.3020     0.6840 h1         1 BGY       0.069700
     53 H12          7.2540     1.5700     2.4270 h1         1 BGY       0.069700
     54 H13         -0.6370    -2.0840    -1.5620 h1         1 BGY       0.044700
     55 H14          0.9270    -1.3990    -2.0420 h1         1 BGY       0.044700
     56 H15         -2.4540    -0.5660    -0.9200 h1         1 BGY       0.044700
     57 H16         -2.1650     1.1830    -0.9500 h1         1 BGY       0.044700
     58 H17         -3.4730     0.4060    -2.9310 h1         1 BGY       0.054700
     59 H18         -1.9180     1.1230    -3.3920 h1         1 BGY       0.054700
     60 H19          7.9520    -0.2790     0.2280 ha         1 BGY       0.154000
     61 H20          9.9380    -1.7360     0.2340 ha         1 BGY       0.153000
     62 H21          5.8710    -3.1260     2.6700 ha         1 BGY       0.160000
     63 H22          6.3650     5.7130     0.9630 hc         1 BGY       0.060700
     64 H23          5.3780     5.0750    -0.3590 hc         1 BGY       0.060700
     65 H24         -0.4230    -2.1390    -4.0060 h1         1 BGY       0.054700
     66 H25         -0.0970    -0.3970    -4.0330 h1         1 BGY       0.054700
     67 H26          7.3780     5.2380    -1.8640 hc         1 BGY       0.070700
     68 H27          5.6920     7.0520    -1.7600 hc         1 BGY       0.056200
     69 H28          6.6180     7.8230    -0.4600 hc         1 BGY       0.056200
     70 H29          7.2020     8.8870    -2.5770 h1         1 BGY       0.061950
     71 H30          7.5670     7.3100    -3.3030 h1         1 BGY       0.061950
     72 H31         10.5370     6.9700    -0.9280 h1         1 BGY       0.061950
     73 H32          9.7420     6.0590    -2.2260 h1         1 BGY       0.061950
     74 H33          8.5880     6.6920     0.5150 hc         1 BGY       0.056200
     75 H34          9.0920     5.0990    -0.0770 hc         1 BGY       0.056200
     76 H35         11.4020    12.3490    -3.2490 hc         1 BGY       0.049700
     77 H36         11.7800    10.8260    -2.4310 hc         1 BGY       0.049700
     78 H37         10.8100    10.8190    -3.9100 hc         1 BGY       0.049700
     79 H38         10.9680    11.1450    -0.4240 hc         1 BGY       0.049700
     80 H39         10.3960    12.8110    -0.5900 hc         1 BGY       0.049700
     81 H40          9.2810    11.5410    -0.0680 hc         1 BGY       0.049700
     82 H41          8.6440    12.4600    -3.7310 hc         1 BGY       0.049700
     83 H42          9.4820    13.5730    -2.6420 hc         1 BGY       0.049700
     84 H43          8.0110    12.7500    -2.1050 hc         1 BGY       0.049700
     85 C75          9.5950     9.1400    -1.8110 c          1 BGY       0.758100
@<TRIPOS>BOND
     1    29    27 1
     2    30    27 1
     3    27    28 1
     4    27    40 1
     5    39    85 2
     6    13    37 1
     7    13    11 1
     8    40    85 1
     9    37    21 1
    10    85    36 1
    11    21    10 1
    12    11    33 1
    13    36    25 1
    14    36    24 1
    15    33    10 1
    16    33     1 1
    17    25    26 1
    18     2     1 1
    19     2     3 1
    20    24    23 1
    21    26    22 1
    22    23    22 1
    23     7     8 1
    24     7     6 1
    25     8    35 1
    26    22    20 1
    27     3    32 1
    28    20    19 1
    29     6    32 1
    30     6     5 2
    31    32    34 1
    32    35    19 1
    33    35     9 1
    34    19    38 2
    35     5     9 1
    36     5     4 1
    37    34     4 2
    38     4    12 1
    39    12    18 ar
    40    12    14 ar
    41    18    17 ar
    42    14    15 ar
    43    17    31 1
    44    17    16 ar
    45    15    16 ar
    46    16    41 1
    47     1    42 1
    48     1    43 1
    49     2    44 1
    50     2    45 1
    51     3    46 1
    52     3    47 1
    53     7    48 1
    54     7    49 1
    55     8    50 1
    56     8    51 1
    57     9    52 1
    58     9    53 1
    59    10    54 1
    60    10    55 1
    61    11    56 1
    62    11    57 1
    63    13    58 1
    64    13    59 1
    65    14    60 1
    66    15    61 1
    67    18    62 1
    68    20    63 1
    69    20    64 1
    70    21    65 1
    71    21    66 1
    72    22    67 1
    73    23    68 1
    74    23    69 1
    75    24    70 1
    76    24    71 1
    77    25    72 1
    78    25    73 1
    79    26    74 1
    80    26    75 1
    81    28    76 1
    82    28    77 1
    83    28    78 1
    84    29    79 1
    85    29    80 1
    86    29    81 1
    87    30    82 1
    88    30    83 1
    89    30    84 1
@<TRIPOS>SUBSTRUCTURE
     1 BGY         1 TEMP              0 ****  ****    0 ROOT
