@<TRIPOS>MOLECULE
BGY
   85    89     1     0     0
SMALL
bcc


@<TRIPOS>ATOM
      1 C13          0.0000     0.0000     0.0000 c3         1 BGY       0.159800
      2 C15          1.5300     0.0000     0.0000 c3         1 BGY      -0.059400
      3 C17          2.0390     0.0000     1.4430 c3         1 BGY      -0.016700
      4 C22          5.5830    -0.7350     1.4460 cc         1 BGY       0.444800
      5 C23          5.5840     0.6660     1.4480 cc         1 BGY      -0.327600
      6 C24          4.2960     1.0880     1.4410 cd         1 BGY      -0.235600
      7 C30          3.8720     2.5360     1.4250 c3         1 BGY       0.048900
      8 C31          5.0540     3.4030     1.8720 c3         1 BGY       0.047000
      9 C33          6.7740     1.5960     1.4560 c3         1 BGY       0.154300
     10 C1          -0.1470    -1.2580    -2.0640 c3         1 BGY       0.107300
     11 C3          -1.9390     0.2390    -1.4310 c3         1 BGY       0.107300
     12 C39          6.7820    -1.6100     1.4470 ca         1 BGY      -0.109500
     13 C4          -2.3960     0.2890    -2.8940 c3         1 BGY       0.215400
     14 C41          7.9320    -1.2210     0.7630 ca         1 BGY      -0.090000
     15 C42          9.0440    -2.0380     0.7660 ca         1 BGY      -0.095000
     16 C43          9.0190    -3.2420     1.4490 ca         1 BGY      -0.023600
     17 C44          7.8790    -3.6330     2.1300 ca         1 BGY       0.185900
     18 C45          6.7630    -2.8200     2.1370 ca         1 BGY      -0.053000
     19 C56          6.9120     3.7610     0.3140 c          1 BGY       0.593100
     20 C58          6.3820     5.1450     0.0410 c3         1 BGY      -0.100400
     21 C6          -0.6220    -1.1930    -3.5180 c3         1 BGY       0.215400
     22 C60          7.2870     5.8470    -0.9730 c3         1 BGY      -0.035700
     23 C62          6.6810     7.2020    -1.3450 c3         1 BGY      -0.054900
     24 C63          7.5720     7.8870    -2.3860 c3         1 BGY       0.057500
     25 C65          9.5860     6.7290    -1.3890 c3         1 BGY       0.057500
     26 C66          8.6740     6.0570    -0.3590 c3         1 BGY      -0.054900
     27 C81          9.7550    11.4950    -2.1640 c3         1 BGY       0.194800
     28 C83         11.0300    11.3630    -2.9990 c3         1 BGY      -0.030433
     29 C85         10.1270    11.7680    -0.7050 c3         1 BGY      -0.030433
     30 C87          8.9110    12.6540    -2.6990 c3         1 BGY      -0.030433
     31 I54          7.8500    -5.4570     3.1590 i          1 BGY      -0.263900
     32 N19          3.5050    -0.0010     1.4420 na         1 BGY       0.515400
     33 N2          -0.4900    -0.0000    -1.3850 n3         1 BGY      -0.538600
     34 N21          4.3280    -1.1370     1.4490 nd         1 BGY      -0.642800
     35 N32          6.2710     2.9530     1.1820 n          1 BGY      -0.161800
     36 N64          8.9420     7.9620    -1.8600 n          1 BGY      -0.140800
     37 O5          -2.0270    -0.9300    -3.5450 os         1 BGY      -0.409600
     38 O73          7.9150     3.3740    -0.2470 o          1 BGY      -0.646100
     39 O77         10.7280     9.1900    -1.3740 o          1 BGY      -0.665000
     40 O79          8.9920    10.2620    -2.2460 os         1 BGY      -0.420900
     41 Cl2         10.4220    -4.2650     1.4500 cl         1 BGY      -0.000400
     42 H1          -0.3610     0.8850     0.5110 h1         1 BGY       0.010200
     43 H2          -0.3610    -0.8840     0.5110 h1         1 BGY       0.010200
     44 H3           1.8910     0.8850    -0.5110 hc         1 BGY       0.037200
     45 H4           1.8910    -0.8850    -0.5110 hc         1 BGY       0.037200
     46 H5           1.6780     0.8850     1.9530 h1         1 BGY       0.037700
     47 H6           1.6780    -0.8840     1.9530 h1         1 BGY       0.037700
     48 H7           3.0410     2.6770     2.1050 hc         1 BGY       0.026700
     49 H8           3.5770     2.8150     0.4200 hc         1 BGY       0.026700
     50 H9           5.1960     3.2590     2.9360 h1         1 BGY       0.034700
     51 H10          4.8550     4.4260     1.5750 h1         1 BGY       0.034700
     52 H11          7.4750     1.3020     0.6840 h1         1 BGY       0.041700
     53 H12          7.2540     1.5700     2.4270 h1         1 BGY       0.041700
     54 H13         -0.6370    -2.0840    -1.5620 h1         1 BGY       0.019450
     55 H14          0.9270    -1.3990    -2.0420 h1         1 BGY       0.019450
     56 H15         -2.4540    -0.5660    -0.9200 h1         1 BGY       0.019450
     57 H16         -2.1650     1.1830    -0.9500 h1         1 BGY       0.019450
     58 H17         -3.4730     0.4060    -2.9310 h1         1 BGY       0.013700
     59 H18         -1.9180     1.1230    -3.3920 h1         1 BGY       0.013700
     60 H19          7.9520    -0.2790     0.2280 ha         1 BGY       0.128000
     61 H20          9.9380    -1.7360     0.2340 ha         1 BGY       0.121000
     62 H21          5.8710    -3.1260     2.6700 ha         1 BGY       0.133000
     63 H22          6.3650     5.7130     0.9630 hc         1 BGY       0.032700
     64 H23          5.3780     5.0750    -0.3590 hc         1 BGY       0.032700
     65 H24         -0.4230    -2.1390    -4.0060 h1         1 BGY       0.013700
     66 H25         -0.0970    -0.3970    -4.0330 h1         1 BGY       0.013700
     67 H26          7.3780     5.2380    -1.8640 hc         1 BGY       0.048700
     68 H27          5.6920     7.0520    -1.7600 hc         1 BGY       0.030450
     69 H28          6.6180     7.8230    -0.4600 hc         1 BGY       0.030450
     70 H29          7.2020     8.8870    -2.5770 h1         1 BGY       0.033200
     71 H30          7.5670     7.3100    -3.3030 h1         1 BGY       0.033200
     72 H31         10.5370     6.9700    -0.9280 h1         1 BGY       0.033200
     73 H32          9.7420     6.0590    -2.2260 h1         1 BGY       0.033200
     74 H33          8.5880     6.6920     0.5150 hc         1 BGY       0.030450
     75 H34          9.0920     5.0990    -0.0770 hc         1 BGY       0.030450
     76 H35         11.4020    12.3490    -3.2490 hc         1 BGY       0.019256
     77 H36         11.7800    10.8260    -2.4310 hc         1 BGY       0.019256
     78 H37         10.8100    10.8190    -3.9100 hc         1 BGY       0.019256
     79 H38         10.9680    11.1450    -0.4240 hc         1 BGY       0.019256
     80 H39         10.3960    12.8110    -0.5900 hc         1 BGY       0.019256
     81 H40          9.2810    11.5410    -0.0680 hc         1 BGY       0.019256
     82 H41          8.6440    12.4600    -3.7310 hc         1 BGY       0.019256
     83 H42          9.4820    13.5730    -2.6420 hc         1 BGY       0.019256
     84 H43          8.0110    12.7500    -2.1050 hc         1 BGY       0.019256
     85 C75          9.5950     9.1400    -1.8110 c          1 BGY       0.703100
@<TRIPOS>BOND
     1     1     2 1   
     2     1    33 1   
     3     1    42 1   
     4     1    43 1   
     5     2     3 1   
     6     2    44 1   
     7     2    45 1   
     8     3    32 1   
     9     3    46 1   
    10     3    47 1   
    11     4     5 1   
    12     4    12 1   
    13     4    34 2   
    14     5     6 2   
    15     5     9 1   
    16     6     7 1   
    17     6    32 1   
    18     7     8 1   
    19     7    48 1   
    20     7    49 1   
    21     8    35 1   
    22     8    50 1   
    23     8    51 1   
    24     9    35 1   
    25     9    52 1   
    26     9    53 1   
    27    10    21 1   
    28    10    33 1   
    29    10    54 1   
    30    10    55 1   
    31    11    13 1   
    32    11    33 1   
    33    11    56 1   
    34    11    57 1   
    35    12    14 ar  
    36    12    18 ar  
    37    13    37 1   
    38    13    58 1   
    39    13    59 1   
    40    14    15 ar  
    41    14    60 1   
    42    15    16 ar  
    43    15    61 1   
    44    16    17 ar  
    45    16    41 1   
    46    17    18 ar  
    47    17    31 1   
    48    18    62 1   
    49    19    20 1   
    50    19    35 1   
    51    19    38 2   
    52    20    22 1   
    53    20    63 1   
    54    20    64 1   
    55    21    37 1   
    56    21    65 1   
    57    21    66 1   
    58    22    23 1   
    59    22    26 1   
    60    22    67 1   
    61    23    24 1   
    62    23    68 1   
    63    23    69 1   
    64    24    36 1   
    65    24    70 1   
    66    24    71 1   
    67    25    26 1   
    68    25    36 1   
    69    25    72 1   
    70    25    73 1   
    71    26    74 1   
    72    26    75 1   
    73    27    28 1   
    74    27    29 1   
    75    27    30 1   
    76    27    40 1   
    77    28    76 1   
    78    28    77 1   
    79    28    78 1   
    80    29    79 1   
    81    29    80 1   
    82    29    81 1   
    83    30    82 1   
    84    30    83 1   
    85    30    84 1   
    86    32    34 1   
    87    36    85 1   
    88    39    85 2   
    89    40    85 1   
@<TRIPOS>SUBSTRUCTURE
     1 BGY         1 TEMP              0 ****  ****    0 ROOT
