@<TRIPOS>MOLECULE
BH0
   73    77     1     0     0
SMALL
bcc


@<TRIPOS>ATOM
      1 C1         -0.0810    0.2190    0.1570 c3        1 BH0      0.074700
      2 C2         -0.8450   -0.9550    0.8050 c3        1 BH0     -0.066100
      3 C3         -2.1950   -1.1470    0.2100 ca        1 BH0     -0.094300
      4 C4         -3.2940   -0.4260    0.6940 ca        1 BH0     -0.127000
      5 C5         -4.5620   -0.6330    0.1540 ca        1 BH0     -0.128000
      6 C6         -4.7440   -1.5590   -0.8730 ca        1 BH0     -0.127000
      7 C7         -3.6530   -2.2780   -1.3610 ca        1 BH0     -0.128000
      8 C8         -2.3840   -2.0740   -0.8210 ca        1 BH0     -0.127000
      9 C9          1.4360    0.0150    0.3840 c3        1 BH0      0.116100
     10 O1          2.2080    0.8120   -0.4900 oh        1 BH0     -0.618800
     11 C10         1.8630    0.1990    1.8490 c3        1 BH0      0.165800
     12 N1          1.6500    1.5240    2.3880 n3        1 BH0     -0.577500
     13 S1          2.7560    2.7870    2.2400 sy        1 BH0      1.525200
     14 O2          2.6440    3.6720    3.3200 o         1 BH0     -0.636300
     15 N2          0.4120    1.9080    2.8170 n         1 BH0     -0.227200
     16 N3         -0.5500    1.5390    0.5380 n         1 BH0     -0.460800
     17 C11        -0.7270    1.8290    1.9200 c         1 BH0      0.776500
     18 O3         -1.8380    2.1760    2.3760 o         1 BH0     -0.639500
     19 C14        -1.4970    2.1760   -0.3710 c3        1 BH0      0.127300
     20 C15         0.0790    1.6140    4.2270 c3        1 BH0      0.108300
     21 C12         4.2370    1.9780    2.3880 ca        1 BH0     -0.385500
     22 C17         0.1180    2.8580   -2.1870 ca        1 BH0     -0.079000
     23 C18         0.6680    3.8100   -3.0380 ca        1 BH0     -0.182500
     24 C19         0.2290    5.1410   -2.9440 ca        1 BH0      0.131100
     25 C20        -0.7440    5.5130   -2.0060 ca        1 BH0     -0.182500
     26 C21        -1.2800    4.5440   -1.1610 ca        1 BH0     -0.079000
     27 C22        -0.8620    3.2130   -1.2520 ca        1 BH0     -0.132300
     28 C23         0.9080   -0.5330    5.2360 ca        1 BH0     -0.082500
     29 C24         0.7100   -1.8530    5.6360 ca        1 BH0     -0.190000
     30 C25        -0.5290   -2.4630    5.3940 ca        1 BH0      0.133100
     31 C26        -1.5660   -1.7600    4.7550 ca        1 BH0     -0.190000
     32 C27        -1.3480   -0.4440    4.3660 ca        1 BH0     -0.082500
     33 C28        -0.1130    0.1780    4.6000 ca        1 BH0     -0.164300
     34 O5         -0.8010   -3.7610    5.7550 oh        1 BH0     -0.494100
     35 C31         4.8720    1.8850    3.6310 ca        1 BH0      0.022000
     36 C32         4.8870    1.4690    1.2550 ca        1 BH0      0.005000
     37 O8          2.6810    3.3180    0.9460 o         1 BH0     -0.636300
     38 C33         6.1330    1.2880    3.7420 ca        1 BH0     -0.045000
     39 C34         6.1460    0.8810    1.3580 ca        1 BH0     -0.162000
     40 C13         6.7730    0.7860    2.5990 ca        1 BH0     -0.030000
     41 C16         6.7650    1.1910    5.0110 cg        1 BH0      0.226800
     42 N4          7.2840    1.1080    6.0490 n1        1 BH0     -0.346800
     43 H11        -0.2230    0.1360   -0.9670 h1        1 BH0      0.083700
     44 H21        -0.9410   -0.7870    1.9140 hc        1 BH0      0.060700
     45 H22        -0.2400   -1.8900    0.6620 hc        1 BH0      0.060700
     46 H44        -3.1500    0.3150    1.4990 ha        1 BH0      0.139000
     47 H55        -5.4200   -0.0640    0.5410 ha        1 BH0      0.134500
     48 H66        -5.7450   -1.7220   -1.2970 ha        1 BH0      0.133000
     49 H77        -3.7930   -3.0080   -2.1710 ha        1 BH0      0.134500
     50 H88        -1.5270   -2.6480   -1.2060 ha        1 BH0      0.139000
     51 H99         1.6960   -1.0420    0.0820 h1        1 BH0      0.080700
     52 H101        1.3150   -0.5640    2.4740 h1        1 BH0      0.071200
     53 H102        2.9650   -0.0300    1.9200 h1        1 BH0      0.071200
     54 H141       -2.3290    2.6570    0.2250 h1        1 BH0      0.068700
     55 H142       -1.9780    1.3910   -1.0270 h1        1 BH0      0.068700
     56 H151       -0.8710    2.1880    4.4390 h1        1 BH0      0.092200
     57 H152        0.9030    2.0650    4.8530 h1        1 BH0      0.092200
     58 H117        0.4680    1.8150   -2.2460 ha        1 BH0      0.136000
     59 H118        1.4390    3.5420   -3.7730 ha        1 BH0      0.142000
     60 H220       -1.0740    6.5580   -1.9320 ha        1 BH0      0.142000
     61 H221       -2.0370    4.8340   -0.4170 ha        1 BH0      0.136000
     62 H223        1.8760   -0.0480    5.4330 ha        1 BH0      0.145000
     63 H224        1.5120   -2.4080    6.1410 ha        1 BH0      0.147000
     64 H226       -2.5310   -2.2560    4.5790 ha        1 BH0      0.147000
     65 H227       -2.1540    0.1260    3.8720 ha        1 BH0      0.145000
     66 H331        4.3790    2.3070    4.5270 ha        1 BH0      0.169000
     67 H332        4.3850    1.5400    0.2690 ha        1 BH0      0.179000
     68 H334        6.6460    0.4930    0.4580 ha        1 BH0      0.153000
     69 H113        7.7690    0.3220    2.6840 ha        1 BH0      0.151000
     70 HO1        -0.0250   -4.1140    6.2150 ho        1 BH0      0.421000
     71 HO2         0.4530    6.9180   -3.6090 ho        1 BH0      0.419000
     72 HO3         1.9120    1.7350   -0.4250 ho        1 BH0      0.443000
     73 O4          0.7990    6.0390   -3.8180 oh        1 BH0     -0.498100
@<TRIPOS>BOND
     1    1    2 1
     2    1    9 1
     3    1   16 1
     4    1   43 1
     5    2    3 1
     6    2   44 1
     7    2   45 1
     8    3    4 ar
     9    3    8 ar
    10    4    5 ar
    11    4   46 1
    12    5    6 ar
    13    5   47 1
    14    6    7 ar
    15    6   48 1
    16    7    8 ar
    17    7   49 1
    18    8   50 1
    19    9   10 1
    20    9   11 1
    21    9   51 1
    22   10   72 1
    23   11   12 1
    24   11   52 1
    25   11   53 1
    26   12   13 1
    27   12   15 1
    28   13   14 2
    29   13   21 1
    30   13   37 2
    31   15   17 1
    32   15   20 1
    33   16   17 1
    34   16   19 1
    35   17   18 2
    36   19   27 1
    37   19   54 1
    38   19   55 1
    39   20   33 1
    40   20   56 1
    41   20   57 1
    42   21   35 ar
    43   21   36 ar
    44   22   23 ar
    45   22   27 ar
    46   22   58 1
    47   23   24 ar
    48   23   59 1
    49   24   25 ar
    50   24   73 1
    51   25   26 ar
    52   25   60 1
    53   26   27 ar
    54   26   61 1
    55   28   29 ar
    56   28   33 ar
    57   28   62 1
    58   29   30 ar
    59   29   63 1
    60   30   31 ar
    61   30   34 1
    62   31   32 ar
    63   31   64 1
    64   32   33 ar
    65   32   65 1
    66   34   70 1
    67   35   38 ar
    68   35   66 1
    69   36   39 ar
    70   36   67 1
    71   38   40 ar
    72   38   41 1
    73   39   40 ar
    74   39   68 1
    75   40   69 1
    76   41   42 3
    77   71   73 1
@<TRIPOS>SUBSTRUCTURE
     1 BH0         1 TEMP              0 ****  ****    0 ROOT
