@<TRIPOS>MOLECULE
BH3
   67    67     1     0     0
SMALL
bcc


@<TRIPOS>ATOM
      1 OAD         0.3200   -1.0970   -2.3280 o         1 BH3     -0.920000
      2 PBC         1.5360   -1.8370   -1.9070 p5        1 BH3      2.152000
      3 OAE         0.7670   -2.9680   -0.7810 os        1 BH3     -0.756000
      4 OAB         2.0820   -2.8260   -2.8900 o         1 BH3     -0.920000
      5 CAZ         2.6190   -1.1760   -0.9290 c2        1 BH3     -1.486000
      6 PBD         3.8560    0.6640   -0.9710 p3        1 BH3      2.569000
      7 OAF         4.9580    0.1770   -0.0810 o         1 BH3     -1.227000
      8 OAG         4.2120    0.8370   -2.4090 o         1 BH3     -1.227000
      9 OAC         2.9920    1.7220   -0.3620 o         1 BH3     -1.227000
     10 CAY         2.0980   -0.8540    0.4140 c3        1 BH3      0.020000
     11 NBB         1.7520   -2.0000    1.2790 n3        1 BH3     -0.265000
     12 CAJ         0.9310   -3.0670    0.5680 c3        1 BH3      0.262000
     13 CAI         2.8110   -2.7020    1.8900 c2        1 BH3     -0.079000
     14 CAH         2.6730   -4.0630    1.7820 c2        1 BH3     -0.269000
     15 NBA         1.5060   -4.4250    1.0330 n3        1 BH3     -0.254000
     16 CAX         1.7140   -5.4190    0.0040 c3        1 BH3     -0.035000
     17 CAW         2.8610   -5.1980   -0.9770 c3        1 BH3     -0.221000
     18 CAV         2.8690   -6.2370   -2.0770 c3        1 BH3     -0.114000
     19 CAU         3.4950   -5.6580   -3.3290 c3        1 BH3     -0.204000
     20 CAT         3.3450   -6.5830   -4.5160 c3        1 BH3     -0.138000
     21 CAS         3.9080   -5.9430   -5.7680 c3        1 BH3     -0.165000
     22 CAR         3.7040   -6.8210   -6.9850 c3        1 BH3     -0.152000
     23 CAQ         4.2620   -6.1680   -8.2320 c3        1 BH3     -0.161000
     24 CAP         4.0500   -7.0350   -9.4550 c3        1 BH3     -0.155000
     25 CAO         4.6070   -6.3780  -10.6990 c3        1 BH3     -0.160000
     26 CAN         4.3950   -7.2430  -11.9240 c3        1 BH3     -0.156000
     27 CAM         4.9510   -6.5840  -13.1670 c3        1 BH3     -0.159000
     28 CAL         4.7400   -7.4470  -14.3920 c3        1 BH3     -0.157000
     29 CAK         5.2960   -6.7880  -15.6360 c3        1 BH3     -0.160000
     30 CAA         5.0880   -7.6440  -16.8590 c3        1 BH3     -0.208000
     31 H3          3.6070   -1.6650   -0.9350 ha        1 BH3      0.136000
     32 H6          1.1160   -0.3020    0.2960 h1        1 BH3      0.090000
     33 H7          2.8070   -0.2110    1.0130 h1        1 BH3      0.090000
     34 H8         -0.0910   -3.0450    1.0670 h3        1 BH3      0.046000
     35 H9          3.6070   -2.1450    2.3900 h4        1 BH3      0.141000
     36 H10         3.3140   -4.8380    2.1960 h4        1 BH3      0.103000
     37 H11         1.8630   -6.4120    0.5230 h1        1 BH3      0.044000
     38 H12         0.7550   -5.4680   -0.5860 h1        1 BH3      0.044000
     39 H13         2.7180   -4.1670   -1.4440 hc        1 BH3      0.129000
     40 H14         3.8410   -5.2000   -0.4370 hc        1 BH3      0.129000
     41 H15         3.4230   -7.1590   -1.7540 hc        1 BH3      0.028500
     42 H16         1.8170   -6.5540   -2.3080 hc        1 BH3      0.028500
     43 H17         4.5810   -5.4530   -3.1470 hc        1 BH3      0.140000
     44 H18         2.9980   -4.6540   -3.5350 hc        1 BH3      0.140000
     45 H19         3.8670   -7.5580   -4.3240 hc        1 BH3      0.045000
     46 H20         2.2590   -6.8170   -4.6730 hc        1 BH3      0.045000
     47 H21         3.4080   -4.9490   -5.9230 hc        1 BH3      0.096000
     48 H22         5.0020   -5.7420   -5.6270 hc        1 BH3      0.096000
     49 H23         2.6090   -7.0200   -7.1240 hc        1 BH3      0.062000
     50 H24         4.2020   -7.8140   -6.8250 hc        1 BH3      0.062000
     51 H25         5.3580   -5.9720   -8.0950 hc        1 BH3      0.084500
     52 H26         3.7660   -5.1730   -8.3830 hc        1 BH3      0.084500
     53 H27         2.9540   -7.2300   -9.5910 hc        1 BH3      0.069000
     54 H28         4.5450   -8.0300   -9.3020 hc        1 BH3      0.069000
     55 H29         5.7030   -6.1820  -10.5620 hc        1 BH3      0.081500
     56 H30         4.1110   -5.3830  -10.8500 hc        1 BH3      0.081500
     57 H31         3.2980   -7.4380  -12.0600 hc        1 BH3      0.072500
     58 H32         4.8900   -8.2380  -11.7720 hc        1 BH3      0.072500
     59 H33         6.0470   -6.3870  -13.0300 hc        1 BH3      0.079500
     60 H34         4.4550   -5.5890  -13.3180 hc        1 BH3      0.079500
     61 H35         5.2360   -8.4420  -14.2410 hc        1 BH3      0.074500
     62 H36         3.6430   -7.6430  -14.5290 hc        1 BH3      0.074500
     63 H37         6.3920   -6.5910  -15.4950 hc        1 BH3      0.078500
     64 H38         4.7990   -5.7930  -15.7840 hc        1 BH3      0.078500
     65 H39         5.5050   -7.1400  -17.7630 hc        1 BH3      0.066000
     66 H40         5.5970   -8.6310  -16.7390 hc        1 BH3      0.066000
     67 H41         4.0000   -7.8300  -17.0280 hc        1 BH3      0.066000
@<TRIPOS>BOND
     1    1    2 1   
     2    2    3 1   
     3    2    4 1   
     4    2    5 1   
     5    3   12 1   
     6    5   10 1   
     7    5   31 1   
     8    6    7 1   
     9    6    8 1   
    10    6    9 1   
    11   10   11 1   
    12   10   32 1   
    13   10   33 1   
    14   11   12 1   
    15   11   13 1   
    16   12   15 1   
    17   12   34 1   
    18   13   14 1   
    19   13   35 1   
    20   14   15 1   
    21   14   36 1   
    22   15   16 1   
    23   16   17 1   
    24   16   37 1   
    25   16   38 1   
    26   17   18 1   
    27   17   39 1   
    28   17   40 1   
    29   18   19 1   
    30   18   41 1   
    31   18   42 1   
    32   19   20 1   
    33   19   43 1   
    34   19   44 1   
    35   20   21 1   
    36   20   45 1   
    37   20   46 1   
    38   21   22 1   
    39   21   47 1   
    40   21   48 1   
    41   22   23 1   
    42   22   49 1   
    43   22   50 1   
    44   23   24 1   
    45   23   51 1   
    46   23   52 1   
    47   24   25 1   
    48   24   53 1   
    49   24   54 1   
    50   25   26 1   
    51   25   55 1   
    52   25   56 1   
    53   26   27 1   
    54   26   57 1   
    55   26   58 1   
    56   27   28 1   
    57   27   59 1   
    58   27   60 1   
    59   28   29 1   
    60   28   61 1   
    61   28   62 1   
    62   29   30 1   
    63   29   63 1   
    64   29   64 1   
    65   30   65 1   
    66   30   66 1   
    67   30   67 1   
@<TRIPOS>SUBSTRUCTURE
     1 BH3         1 TEMP              0 ****  ****    0 ROOT
