@<TRIPOS>MOLECULE
molecule
   67    67     1     0     0
SMALL
bcc


@<TRIPOS>ATOM
      1 OAD          0.0000     0.0000     0.0000 o          1 BH3      -0.895167
      2 PBC          1.6100     0.0000     0.0000 p5         1 BH3       1.069700
      3 OAE          2.1170    -1.2440    -0.7180 o          1 BH3      -0.895167
      4 OAB          2.1180     1.2430    -0.7190 o          1 BH3      -0.895167
      5 CAZ          2.2170     0.0000     1.7180 c3         1 BH3      -0.355100
      6 PBD          1.6100     1.4890     2.5780 p5         1 BH3       1.069700
      7 OAF          2.1470     1.4890     4.0960 o          1 BH3      -0.895167
      8 OAG          2.1480     2.8030     1.8180 o          1 BH3      -0.895167
      9 OAC          0.0870     1.4890     2.5780 o          1 BH3      -0.895167
     10 CAY          1.7070    -1.2490     2.4390 c3         1 BH3       0.062300
     11 NBB          2.2910    -2.4430     1.8230 na         1 BH3       0.021900
     12 CAJ          1.7740    -3.1470     0.7930 cc         1 BH3       0.028400
     13 CAI          3.4660    -3.0490     2.1780 cd         1 BH3      -0.116300
     14 CAH          3.6230    -4.1050     1.3570 cc         1 BH3      -0.284300
     15 NBA          2.5750    -4.1400     0.5210 na         1 BH3      -0.051100
     16 CAX          2.3630    -5.1360    -0.5320 c3         1 BH3       0.064300
     17 CAW          3.0090    -4.6480    -1.8320 c3         1 BH3      -0.110400
     18 CAV          2.7880    -5.6880    -2.9320 c3         1 BH3      -0.081400
     19 CAU          3.4330    -5.2010    -4.2310 c3         1 BH3      -0.079400
     20 CAT          3.2140    -6.2400    -5.3310 c3         1 BH3      -0.082400
     21 CAS          3.8590    -5.7530    -6.6300 c3         1 BH3      -0.082400
     22 CAR          3.6380    -6.7930    -7.7310 c3         1 BH3      -0.082400
     23 CAQ          4.2840    -6.3050    -9.0290 c3         1 BH3      -0.082400
     24 CAP          4.0630    -7.3450   -10.1300 c3         1 BH3      -0.082400
     25 CAO          4.7080    -6.8580   -11.4290 c3         1 BH3      -0.082400
     26 CAN          4.4890    -7.8970   -12.5290 c3         1 BH3      -0.082400
     27 CAM          5.1330    -7.4090   -13.8280 c3         1 BH3      -0.082400
     28 CAL          4.9130    -8.4490   -14.9280 c3         1 BH3      -0.081400
     29 CAK          5.5590    -7.9610   -16.2270 c3         1 BH3      -0.084400
     30 CAA          5.3380    -9.0020   -17.3280 c3         1 BH3      -0.092100
     31 H3           3.3000    -0.0000     1.7180 hc         1 BH3       0.040700
     32 H6           0.6270    -1.2940     2.3630 h1         1 BH3       0.072200
     33 H7           1.9940    -1.2050     3.4830 h1         1 BH3       0.072200
     34 H8           0.8460    -2.9260     0.2790 h5         1 BH3       0.265000
     35 H9           4.1380    -2.7400     2.9690 h4         1 BH3       0.178000
     36 H10          4.4520    -4.8020     1.3680 h4         1 BH3       0.138000
     37 H11          2.8130    -6.0760    -0.2360 h1         1 BH3       0.034200
     38 H12          1.3010    -5.2770    -0.6880 h1         1 BH3       0.034200
     39 H13          2.5590    -3.7080    -2.1280 hc         1 BH3       0.094200
     40 H14          4.0720    -4.5070    -1.6760 hc         1 BH3       0.094200
     41 H15          1.7260    -5.8300    -3.0870 hc         1 BH3       0.021700
     42 H16          3.2390    -6.6280    -2.6350 hc         1 BH3       0.021700
     43 H17          2.9830    -4.2610    -4.5270 hc         1 BH3       0.056200
     44 H18          4.4960    -5.0590    -4.0750 hc         1 BH3       0.056200
     45 H19          3.6630    -7.1800    -5.0350 hc         1 BH3       0.030200
     46 H20          2.1510    -6.3810    -5.4870 hc         1 BH3       0.030200
     47 H21          4.9210    -5.6120    -6.4740 hc         1 BH3       0.046700
     48 H22          3.4090    -4.8130    -6.9260 hc         1 BH3       0.046700
     49 H23          4.0870    -7.7330    -7.4350 hc         1 BH3       0.034700
     50 H24          2.5750    -6.9330    -7.8870 hc         1 BH3       0.034700
     51 H25          5.3470    -6.1640    -8.8730 hc         1 BH3       0.043200
     52 H26          3.8350    -5.3650    -9.3250 hc         1 BH3       0.043200
     53 H27          4.5130    -8.2850    -9.8340 hc         1 BH3       0.037200
     54 H28          3.0010    -7.4860   -10.2860 hc         1 BH3       0.037200
     55 H29          5.7710    -6.7160   -11.2730 hc         1 BH3       0.042200
     56 H30          4.2580    -5.9180   -11.7250 hc         1 BH3       0.042200
     57 H31          4.9390    -8.8370   -12.2330 hc         1 BH3       0.038200
     58 H32          3.4260    -8.0390   -12.6850 hc         1 BH3       0.038200
     59 H33          4.6830    -6.4690   -14.1250 hc         1 BH3       0.041200
     60 H34          6.1960    -7.2670   -13.6730 hc         1 BH3       0.041200
     61 H35          5.3630    -9.3890   -14.6320 hc         1 BH3       0.038700
     62 H36          3.8500    -8.5910   -15.0840 hc         1 BH3       0.038700
     63 H37          5.1090    -7.0210   -16.5240 hc         1 BH3       0.039700
     64 H38          6.6210    -7.8200   -16.0720 hc         1 BH3       0.039700
     65 H39          5.7950    -8.6570   -18.2480 hc         1 BH3       0.029033
     66 H40          4.2760    -9.1440   -17.4840 hc         1 BH3       0.029033
     67 H41          5.7880    -9.9420   -17.0320 hc         1 BH3       0.029033
@<TRIPOS>BOND
     1    30    29 1
     2    29    28 1
     3    28    27 1
     4    27    26 1
     5    26    25 1
     6    25    24 1
     7    24    23 1
     8    23    22 1
     9    22    21 1
    10    21    20 1
    11    20    19 1
    12    19    18 1
    13    18    17 1
    14     3     2 1
    15     4     2 1
    16     1     2 1
    17    17    16 1
    18     2     5 1
    19    16    15 1
    20    12    15 1
    21    12    11 2
    22    15    14 1
    23     5    10 1
    24     5     6 1
    25     9     6 1
    26    10    11 1
    27    11    13 1
    28     7     6 1
    29     6     8 1
    30    14    13 2
    31     5    31 1
    32    10    32 1
    33    10    33 1
    34    12    34 1
    35    13    35 1
    36    14    36 1
    37    16    37 1
    38    16    38 1
    39    17    39 1
    40    17    40 1
    41    18    41 1
    42    18    42 1
    43    19    43 1
    44    19    44 1
    45    20    45 1
    46    20    46 1
    47    21    47 1
    48    21    48 1
    49    22    49 1
    50    22    50 1
    51    23    51 1
    52    23    52 1
    53    24    53 1
    54    24    54 1
    55    25    55 1
    56    25    56 1
    57    26    57 1
    58    26    58 1
    59    27    59 1
    60    27    60 1
    61    28    61 1
    62    28    62 1
    63    29    63 1
    64    29    64 1
    65    30    65 1
    66    30    66 1
    67    30    67 1
@<TRIPOS>SUBSTRUCTURE
     1 BH3         1 TEMP              0 ****  ****    0 ROOT
