@<TRIPOS>MOLECULE
BH4
   32    33     1     0     0
SMALL
bcc


@<TRIPOS>ATOM
      1 N1          0.0710   -0.3080   -0.0170 nc        1 BH4     -0.709300
      2 C2          1.4160   -0.3270    0.0240 cd        1 BH4      0.682800
      3 N8         -2.0010   -0.4400    1.1620 nh        1 BH4     -0.733000
      4 C7         -2.7430   -0.3340    2.3890 c3        1 BH4      0.174800
      5 C6         -2.0300    0.4720    3.5100 c3        1 BH4      0.161500
      6 N5         -0.6220    0.1470    3.6560 nh        1 BH4     -0.666000
      7 C4          1.5070   -0.1630    2.4670 c         1 BH4      0.728700
      8 N3          2.1550   -0.2610    1.2140 n         1 BH4     -0.498400
      9 C10        -0.6170   -0.2840    1.2020 cc        1 BH4      0.389600
     10 C9          0.0460   -0.1190    2.4350 cd        1 BH4     -0.201200
     11 C17        -2.3350    4.1300    4.6480 c3        1 BH4     -0.102100
     12 O16        -0.2780    3.2440    3.9430 oh        1 BH4     -0.607800
     13 C15        -1.5740    2.8460    4.3650 c3        1 BH4      0.131100
     14 N11         2.1350   -0.4810   -1.1860 nh        1 BH4     -0.889800
     15 O12         2.2320   -0.1330    3.4790 o         1 BH4     -0.634500
     16 C13        -2.2360    1.9920    3.2620 c3        1 BH4      0.109100
     17 O14        -3.6470    2.1640    3.2350 oh        1 BH4     -0.610800
     18 HN8        -2.4700   -0.1790    0.3240 hn        1 BH4      0.434800
     19 H71        -2.9140   -1.3820    2.7730 h1        1 BH4      0.064700
     20 H72        -3.7470    0.1340    2.1870 h1        1 BH4      0.064700
     21 H6         -2.5580    0.2250    4.4790 h1        1 BH4      0.077700
     22 HN5        -0.4820   -0.6090    4.3030 hn        1 BH4      0.386800
     23 HN3         3.1490   -0.3300    1.2070 hn        1 BH4      0.336500
     24 H172       -2.4510    4.7310    3.7150 hc        1 BH4      0.046367
     25 H173       -1.7680    4.7420    5.3890 hc        1 BH4      0.046367
     26 H16         0.2800    2.4560    3.9420 ho        1 BH4      0.427000
     27 H15        -1.5020    2.2410    5.3130 h1        1 BH4      0.044700
     28 H111        1.5710   -0.4320   -2.0090 hn        1 BH4      0.417300
     29 H112        2.9790    0.0450   -1.2450 hn        1 BH4      0.417300
     30 H13        -1.7980    2.2840    2.2670 h1        1 BH4      0.053700
     31 H14        -3.8110    3.0790    2.9750 ho        1 BH4      0.411000
     32 H171       -3.3420    3.8890    5.0650 hc        1 BH4      0.046367
@<TRIPOS>BOND
     1    1    2 2   
     2    1    9 1   
     3    2    8 1   
     4    2   14 1   
     5    3    4 1   
     6    3    9 1   
     7    3   18 1   
     8    4    5 1   
     9    4   19 1   
    10    4   20 1   
    11    5    6 1   
    12    5   16 1   
    13    5   21 1   
    14    6   10 1   
    15    6   22 1   
    16    7    8 1   
    17    7   10 1   
    18    7   15 2   
    19    8   23 1   
    20    9   10 2   
    21   11   13 1   
    22   11   24 1   
    23   11   25 1   
    24   11   32 1   
    25   12   13 1   
    26   12   26 1   
    27   13   16 1   
    28   13   27 1   
    29   14   28 1   
    30   14   29 1   
    31   16   17 1   
    32   16   30 1   
    33   17   31 1   
@<TRIPOS>SUBSTRUCTURE
     1 BH4         1 TEMP              0 ****  ****    0 ROOT
