@<TRIPOS>MOLECULE
molecule
   68    68     1     0     0
SMALL
bcc


@<TRIPOS>ATOM
      1 OAE          0.0000     0.0000     0.0000 o          1 BH5      -0.878833
      2 PBD          1.5230     0.0000     0.0000 p5         1 BH5       1.049700
      3 OAF          2.0590    -1.3150    -0.7590 o          1 BH5      -0.878833
      4 OAB          2.0610     1.3130    -0.7600 o          1 BH5      -0.878833
      5 CBC          2.1310     0.0000     1.7190 c3         1 BH5      -0.129600
      6 PBE          1.5230    -1.4880     2.5780 p5         1 BH5       1.049700
      7 OAG          2.0300    -1.4880     4.0150 o          1 BH5      -0.878833
      8 OAH         -0.0880    -1.4870     2.5790 o          1 BH5      -0.878833
      9 OAC          2.0300    -2.7320     1.8600 o          1 BH5      -0.878833
     10 OAD          3.5600    -0.0010     1.7190 oh         1 BH5      -0.648800
     11 CAZ          1.6220     1.2500     2.4390 c3         1 BH5       0.065300
     12 NBB          2.1110     2.4450     1.7480 na         1 BH5       0.009900
     13 CAK          1.4900     3.0990     0.7430 cc         1 BH5       0.025400
     14 CAJ          3.2780     3.1120     2.0050 cc         1 BH5      -0.084300
     15 CAI          3.3330     4.1460     1.1450 cd         1 BH5      -0.290300
     16 NBA          2.2290     4.1140     0.3850 na         1 BH5      -0.051100
     17 CAY          1.9010     5.0710    -0.6750 c3         1 BH5       0.064300
     18 CAX          1.1060     6.2370    -0.0840 c3         1 BH5      -0.112400
     19 CAW          0.7640     7.2340    -1.1910 c3         1 BH5      -0.080400
     20 CAV         -0.0320     8.4000    -0.5990 c3         1 BH5      -0.081400
     21 CAU         -0.3740     9.3990    -1.7070 c3         1 BH5      -0.082400
     22 CAT         -1.1690    10.5640    -1.1160 c3         1 BH5      -0.082400
     23 CAS         -1.5110    11.5620    -2.2230 c3         1 BH5      -0.082400
     24 CAR         -2.3060    12.7280    -1.6320 c3         1 BH5      -0.082400
     25 CAQ         -2.6490    13.7260    -2.7400 c3         1 BH5      -0.082400
     26 CAP         -3.4430    14.8920    -2.1480 c3         1 BH5      -0.082400
     27 CAO         -3.7850    15.8900    -3.2560 c3         1 BH5      -0.082400
     28 CAN         -4.5810    17.0560    -2.6640 c3         1 BH5      -0.082400
     29 CAM         -4.9230    18.0550    -3.7720 c3         1 BH5      -0.081400
     30 CAL         -5.7180    19.2200    -3.1810 c3         1 BH5      -0.084400
     31 CAA         -6.0600    20.2180    -4.2880 c3         1 BH5      -0.092100
     32 H5           3.8740    -0.8790     1.5800 ho         1 BH5       0.415000
     33 H6           0.5380     1.2500     2.4390 h1         1 BH5       0.074700
     34 H7           1.9830     1.2500     3.4610 h1         1 BH5       0.074700
     35 H8           0.5390     2.8250     0.3030 h5         1 BH5       0.254000
     36 H9           4.0160     2.8550     2.7550 h4         1 BH5       0.177000
     37 H10          4.1310     4.8770     1.0790 h4         1 BH5       0.134000
     38 H11          1.3070     4.5780    -1.4350 h1         1 BH5       0.064200
     39 H12          2.8160     5.4460    -1.1180 h1         1 BH5       0.064200
     40 H13          0.1910     5.8620     0.3590 hc         1 BH5       0.048200
     41 H14          1.6990     6.7300     0.6760 hc         1 BH5       0.048200
     42 H15          1.6780     7.6090    -1.6350 hc         1 BH5       0.039700
     43 H16          0.1700     6.7410    -1.9510 hc         1 BH5       0.039700
     44 H17          0.5620     8.8930     0.1610 hc         1 BH5       0.040700
     45 H18         -0.9460     8.0250    -0.1560 hc         1 BH5       0.040700
     46 H19         -0.9680     8.9050    -2.4670 hc         1 BH5       0.039200
     47 H20          0.5410     9.7740    -2.1500 hc         1 BH5       0.039200
     48 H21         -0.5760    11.0580    -0.3560 hc         1 BH5       0.040200
     49 H22         -2.0840    10.1890    -0.6730 hc         1 BH5       0.040200
     50 H23         -0.5970    11.9370    -2.6670 hc         1 BH5       0.039200
     51 H24         -2.1050    11.0690    -2.9830 hc         1 BH5       0.039200
     52 H25         -3.2200    12.3530    -1.1880 hc         1 BH5       0.040200
     53 H26         -1.7110    13.2220    -0.8730 hc         1 BH5       0.040200
     54 H27         -1.7350    14.1010    -3.1840 hc         1 BH5       0.039700
     55 H28         -3.2440    13.2330    -3.4990 hc         1 BH5       0.039700
     56 H29         -2.8490    15.3860    -1.3880 hc         1 BH5       0.040200
     57 H30         -4.3580    14.5180    -1.7040 hc         1 BH5       0.040200
     58 H31         -2.8710    16.2650    -3.7000 hc         1 BH5       0.039700
     59 H32         -4.3790    15.3960    -4.0160 hc         1 BH5       0.039700
     60 H33         -3.9870    17.5490    -1.9040 hc         1 BH5       0.040700
     61 H34         -5.4950    16.6810    -2.2210 hc         1 BH5       0.040700
     62 H35         -4.0080    18.4300    -4.2150 hc         1 BH5       0.040200
     63 H36         -5.5160    17.5610    -4.5320 hc         1 BH5       0.040200
     64 H37         -5.1240    19.7140    -2.4210 hc         1 BH5       0.039200
     65 H38         -6.6330    18.8450    -2.7380 hc         1 BH5       0.039200
     66 H39         -5.1460    20.5930    -4.7320 hc         1 BH5       0.029700
     67 H40         -6.6540    19.7240    -5.0480 hc         1 BH5       0.029700
     68 H41         -6.6230    21.0430    -3.8700 hc         1 BH5       0.029700
@<TRIPOS>BOND
     1     9     6 1
     2     7     6 1
     3     6     8 1
     4     6     5 1
     5     1     2 1
     6    10     5 1
     7     3     2 1
     8     5     2 1
     9     5    11 1
    10     2     4 1
    11    11    12 1
    12    14    12 1
    13    14    15 2
    14    12    13 2
    15    15    16 1
    16    13    16 1
    17    16    17 1
    18    17    18 1
    19    18    19 1
    20    19    20 1
    21    20    21 1
    22    22    23 1
    23    22    21 1
    24    23    24 1
    25    24    25 1
    26    25    26 1
    27    26    27 1
    28    27    28 1
    29    28    29 1
    30    29    30 1
    31    30    31 1
    32    10    32 1
    33    11    33 1
    34    11    34 1
    35    13    35 1
    36    14    36 1
    37    15    37 1
    38    17    38 1
    39    17    39 1
    40    18    40 1
    41    18    41 1
    42    19    42 1
    43    19    43 1
    44    20    44 1
    45    20    45 1
    46    21    46 1
    47    21    47 1
    48    22    48 1
    49    22    49 1
    50    23    50 1
    51    23    51 1
    52    24    52 1
    53    24    53 1
    54    25    54 1
    55    25    55 1
    56    26    56 1
    57    26    57 1
    58    27    58 1
    59    27    59 1
    60    28    60 1
    61    28    61 1
    62    29    62 1
    63    29    63 1
    64    30    64 1
    65    30    65 1
    66    31    66 1
    67    31    67 1
    68    31    68 1
@<TRIPOS>SUBSTRUCTURE
     1 BH5         1 TEMP              0 ****  ****    0 ROOT
