@<TRIPOS>MOLECULE
BH5
   68    68     1     0     0
SMALL
bcc


@<TRIPOS>ATOM
      1 OAE        -0.2720    1.3440   -0.4800 o         1 BH5     -0.908500
      2 PBD         0.8920    0.5750    0.0490 p5        1 BH5      2.091000
      3 OAF         1.2140   -0.7020   -0.6410 o         1 BH5     -0.908500
      4 OAB         2.1470    1.6440   -0.5380 os        1 BH5     -0.704000
      5 CBC         1.1840    0.6570    1.6510 c2        1 BH5     -1.227000
      6 PBE         0.1870    0.0080    3.4850 p3        1 BH5      2.564000
      7 OAG         1.0150    0.6050    4.5840 o         1 BH5     -1.222667
      8 OAH        -1.1900    0.5800    3.3970 o         1 BH5     -1.222667
      9 OAC         0.3250   -1.4730    3.3190 o         1 BH5     -1.222667
     10 OAD         2.2890   -0.1810    1.9730 oh        1 BH5     -0.349000
     11 CAZ         1.3510    2.0100    2.2460 c3        1 BH5      0.004000
     12 NBB         1.9810    3.0420    1.4310 n3        1 BH5     -0.299000
     13 CAK         1.9680    2.9230   -0.0800 c3        1 BH5      0.235000
     14 CAJ         3.1710    3.6690    1.7620 c2        1 BH5     -0.009000
     15 CAI         3.7780    4.2260    0.6550 c2        1 BH5     -0.364000
     16 NBA         3.1210    3.8310   -0.5670 n3        1 BH5     -0.184000
     17 CAY         2.6420    4.9380   -1.3620 c3        1 BH5     -0.048000
     18 CAX         1.7650    5.9990   -0.6880 c3        1 BH5     -0.204000
     19 CAW         1.3760    7.0820   -1.6700 c3        1 BH5     -0.147000
     20 CAV         0.4900    8.1230   -1.0180 c3        1 BH5     -0.161000
     21 CAU         0.0900    9.2050   -1.9980 c3        1 BH5     -0.156000
     22 CAT        -0.8010   10.2400   -1.3450 c3        1 BH5     -0.159000
     23 CAS        -1.2020   11.3230   -2.3230 c3        1 BH5     -0.156000
     24 CAR        -2.0950   12.3550   -1.6680 c3        1 BH5     -0.159000
     25 CAQ        -2.4960   13.4390   -2.6460 c3        1 BH5     -0.157000
     26 CAP        -3.3890   14.4700   -1.9900 c3        1 BH5     -0.158000
     27 CAO        -3.7880   15.5550   -2.9670 c3        1 BH5     -0.157000
     28 CAN        -4.6800   16.5860   -2.3100 c3        1 BH5     -0.158000
     29 CAM        -5.0780   17.6720   -3.2860 c3        1 BH5     -0.157000
     30 CAL        -5.9720   18.7040   -2.6310 c3        1 BH5     -0.159000
     31 CAA        -6.3700   19.7870   -3.5990 c3        1 BH5     -0.209000
     32 H5          1.8950   -1.0650    2.0510 ho        1 BH5      0.212000
     33 H6          0.3220    2.4160    2.5000 h1        1 BH5      0.108000
     34 H7          1.9350    1.9230    3.2130 h1        1 BH5      0.108000
     35 H8          0.9570    3.3120   -0.4230 h3        1 BH5      0.101000
     36 H9          3.5120    3.7130    2.8000 h4        1 BH5      0.123000
     37 H10         4.6860    4.8190    0.6070 h4        1 BH5      0.104000
     38 H11         3.5480    5.4650   -1.7820 h1        1 BH5      0.052500
     39 H12         2.0650    4.5000   -2.2260 h1        1 BH5      0.052500
     40 H13         0.8450    5.5090   -0.2740 hc        1 BH5      0.095500
     41 H14         2.3210    6.4470    0.1750 hc        1 BH5      0.095500
     42 H15         2.2970    7.5770   -2.0770 hc        1 BH5      0.061000
     43 H16         0.8360    6.6220   -2.5390 hc        1 BH5      0.061000
     44 H17         1.0280    8.5820   -0.1480 hc        1 BH5      0.082500
     45 H18        -0.4290    7.6230   -0.6110 hc        1 BH5      0.082500
     46 H19        -0.4470    8.7430   -2.8680 hc        1 BH5      0.069500
     47 H20         1.0090    9.7040   -2.4050 hc        1 BH5      0.069500
     48 H21        -0.2650   10.7000   -0.4730 hc        1 BH5      0.080000
     49 H22        -1.7190    9.7380   -0.9390 hc        1 BH5      0.080000
     50 H23        -1.7380   10.8610   -3.1940 hc        1 BH5      0.073500
     51 H24        -0.2840   11.8230   -2.7290 hc        1 BH5      0.073500
     52 H25        -3.0140   11.8530   -1.2650 hc        1 BH5      0.079000
     53 H26        -1.5600   12.8140   -0.7950 hc        1 BH5      0.079000
     54 H27        -3.0310   12.9780   -3.5180 hc        1 BH5      0.075000
     55 H28        -1.5760   13.9390   -3.0500 hc        1 BH5      0.075000
     56 H29        -4.3080   13.9690   -1.5880 hc        1 BH5      0.079000
     57 H30        -2.8540   14.9280   -1.1160 hc        1 BH5      0.079000
     58 H31        -2.8680   16.0560   -3.3690 hc        1 BH5      0.076500
     59 H32        -4.3220   15.0960   -3.8400 hc        1 BH5      0.076500
     60 H33        -5.6010   16.0850   -1.9090 hc        1 BH5      0.078500
     61 H34        -4.1460   17.0440   -1.4360 hc        1 BH5      0.078500
     62 H35        -5.6120   17.2140   -4.1600 hc        1 BH5      0.077000
     63 H36        -4.1580   18.1730   -3.6880 hc        1 BH5      0.077000
     64 H37        -5.4370   19.1580   -1.7560 hc        1 BH5      0.077500
     65 H38        -6.8910   18.2000   -2.2290 hc        1 BH5      0.077500
     66 H39        -6.9260   19.3560   -4.4660 hc        1 BH5      0.068000
     67 H40        -5.4680   20.3170   -3.9910 hc        1 BH5      0.068000
     68 H41        -7.0280   20.5360   -3.0960 hc        1 BH5      0.068000
@<TRIPOS>BOND
     1    1    2 1   
     2    2    3 1   
     3    2    4 1   
     4    2    5 1   
     5    4   13 1   
     6    5   10 1   
     7    5   11 1   
     8    6    7 1   
     9    6    8 1   
    10    6    9 1   
    11   10   32 1   
    12   11   12 1   
    13   11   33 1   
    14   11   34 1   
    15   12   13 1   
    16   12   14 1   
    17   13   16 1   
    18   13   35 1   
    19   14   15 1   
    20   14   36 1   
    21   15   16 1   
    22   15   37 1   
    23   16   17 1   
    24   17   18 1   
    25   17   38 1   
    26   17   39 1   
    27   18   19 1   
    28   18   40 1   
    29   18   41 1   
    30   19   20 1   
    31   19   42 1   
    32   19   43 1   
    33   20   21 1   
    34   20   44 1   
    35   20   45 1   
    36   21   22 1   
    37   21   46 1   
    38   21   47 1   
    39   22   23 1   
    40   22   48 1   
    41   22   49 1   
    42   23   24 1   
    43   23   50 1   
    44   23   51 1   
    45   24   25 1   
    46   24   52 1   
    47   24   53 1   
    48   25   26 1   
    49   25   54 1   
    50   25   55 1   
    51   26   27 1   
    52   26   56 1   
    53   26   57 1   
    54   27   28 1   
    55   27   58 1   
    56   27   59 1   
    57   28   29 1   
    58   28   60 1   
    59   28   61 1   
    60   29   30 1   
    61   29   62 1   
    62   29   63 1   
    63   30   31 1   
    64   30   64 1   
    65   30   65 1   
    66   31   66 1   
    67   31   67 1   
    68   31   68 1   
@<TRIPOS>SUBSTRUCTURE
     1 BH5         1 TEMP              0 ****  ****    0 ROOT
