@<TRIPOS>MOLECULE
molecule
   50    51     1     0     0
SMALL
bcc


@<TRIPOS>ATOM
      1 N1           0.0000     0.0000     0.0000 ns         1 BH7      -0.598900
      2 C2           1.4700     0.0000     0.0000 c3         1 BH7       0.090700
      3 C3           1.8430     0.0000     1.4870 c3         1 BH7       0.090700
      4 N4           0.5460     0.0010     2.1790 ns         1 BH7      -0.593900
      5 C5          -0.4360     0.0000     1.2680 c          1 BH7       0.818500
      6 C6           1.9750     1.2420    -0.7650 c3         1 BH7       0.015700
      7 S7           2.1920     2.4540     0.6090 ss         1 BH7      -0.352200
      8 C8           2.6480     1.2430     1.9220 c3         1 BH7       0.035400
      9 O9          -1.6160     0.0000     1.5630 o          1 BH7      -0.680500
     10 C10          2.1990     1.7320     3.3000 c3         1 BH7      -0.065400
     11 C11          2.9600     3.0090     3.6630 c3         1 BH7      -0.087400
     12 C12          2.5110     3.4980     5.0400 c3         1 BH7      -0.065400
     13 C13          3.2720     4.7740     5.4010 c3         1 BH7      -0.159400
     14 C14          2.8300     5.2570     6.7580 c          1 BH7       0.652100
     15 O15          1.9880     4.6390     7.3770 o          1 BH7      -0.620100
     16 N16          3.3680     6.3720     7.2860 ns         1 BH7      -0.580900
     17 C17          2.9390     6.8410     8.6060 c3         1 BH7       0.105000
     18 C18          3.7000     8.1180     8.9680 c3         1 BH7      -0.100400
     19 C19          3.2510     8.6080    10.3460 c3         1 BH7      -0.084400
     20 C20          4.0120     9.8830    10.7080 c3         1 BH7      -0.063400
     21 C21          3.5640    10.3730    12.0850 c3         1 BH7      -0.182400
     22 C22          4.3130    11.6300    12.4410 c          1 BH7       0.890600
     23 O23          4.0810    12.2420    13.6130 o          1 BH7      -0.856800
     24 O24          5.1240    12.0890    11.6720 o          1 BH7      -0.856800
     25 HN1         -0.5810    -0.0010    -0.8150 hn         1 BH7       0.360500
     26 H21A         1.8390    -0.9020    -0.4730 h1         1 BH7       0.061700
     27 H31          2.3920    -0.9020     1.7310 h1         1 BH7       0.064700
     28 HN4          0.4170    -0.0010     3.1710 hn         1 BH7       0.367500
     29 H61          2.9200     1.0370    -1.2530 h1         1 BH7       0.079200
     30 H62          1.2310     1.5880    -1.4720 h1         1 BH7       0.079200
     31 H81          3.7110     1.0380     1.9040 h1         1 BH7       0.077700
     32 H10          1.1360     1.9390     3.2810 hc         1 BH7       0.060200
     33 H11          2.4050     0.9670     4.0390 hc         1 BH7       0.060200
     34 H12          2.7540     3.7740     2.9230 hc         1 BH7       0.047200
     35 H13          4.0230     2.8020     3.6820 hc         1 BH7       0.047200
     36 H14          2.7170     2.7340     5.7800 hc         1 BH7       0.059200
     37 H15          1.4480     3.7050     5.0210 hc         1 BH7       0.059200
     38 H16          3.0660     5.5380     4.6620 hc         1 BH7       0.056700
     39 H17          4.3350     4.5670     5.4200 hc         1 BH7       0.056700
     40 H18          4.0620     6.8820     6.7770 hn         1 BH7       0.311500
     41 H19          1.8750     7.0480     8.5860 h1         1 BH7       0.051200
     42 H20          3.1440     6.0770     9.3450 h1         1 BH7       0.051200
     43 H21          4.7630     7.9110     8.9870 hc         1 BH7       0.042200
     44 H22          3.4940     8.8830     8.2290 hc         1 BH7       0.042200
     45 H23          2.1880     8.8150    10.3260 hc         1 BH7       0.034200
     46 H24          3.4560     7.8430    11.0850 hc         1 BH7       0.034200
     47 H25          3.8070    10.6480     9.9690 hc         1 BH7       0.045200
     48 H26          5.0750     9.6760    10.7270 hc         1 BH7       0.045200
     49 H27          2.5000    10.5790    12.0670 hc         1 BH7       0.028200
     50 H28          3.7700     9.6080    12.8250 hc         1 BH7       0.028200
@<TRIPOS>BOND
     1     1     2 1
     2     1     5 1
     3     1    25 1
     4     2     3 1
     5     2     6 1
     6     2    26 1
     7     3     4 1
     8     3     8 1
     9     3    27 1
    10     4     5 1
    11     4    28 1
    12     5     9 2
    13     6     7 1
    14     6    29 1
    15     6    30 1
    16     7     8 1
    17     8    10 1
    18     8    31 1
    19    10    11 1
    20    10    32 1
    21    10    33 1
    22    11    12 1
    23    11    34 1
    24    11    35 1
    25    12    13 1
    26    12    36 1
    27    12    37 1
    28    13    14 1
    29    13    38 1
    30    13    39 1
    31    14    15 2
    32    14    16 1
    33    16    17 1
    34    16    40 1
    35    17    18 1
    36    17    41 1
    37    17    42 1
    38    18    19 1
    39    18    43 1
    40    18    44 1
    41    19    20 1
    42    19    45 1
    43    19    46 1
    44    20    21 1
    45    20    47 1
    46    20    48 1
    47    21    22 1
    48    21    49 1
    49    21    50 1
    50    22    23 1
    51    22    24 1
@<TRIPOS>SUBSTRUCTURE
     1 BH7         1 TEMP              0 ****  ****    0 ROOT
