@<TRIPOS>MOLECULE
molecule
   52    52     1     0     0
SMALL
bcc


@<TRIPOS>ATOM
      1 OAD          0.0000     0.0000     0.0000 o          1 BH8      -0.892667
      2 PAX          1.6100     0.0000     0.0000 p5         1 BH8       1.061700
      3 OAE          2.1470     0.0000     1.5180 o          1 BH8      -0.892667
      4 OAB          2.1180    -1.2440    -0.7180 o          1 BH8      -0.892667
      5 CAU          2.2170     1.4890    -0.8590 c3         1 BH8      -0.347100
      6 PAY          1.6100     2.9770     0.0000 p5         1 BH8       1.061700
      7 OAF         -0.0000     2.9760    -0.0000 o          1 BH8      -0.892667
      8 OAG          2.1170     2.9770     1.4360 o          1 BH8      -0.892667
      9 OAC          2.1170     4.2210    -0.7190 o          1 BH8      -0.892667
     10 CAT          3.7470     1.4890    -0.8600 c3         1 BH8       0.062300
     11 NAW          4.2360     0.3580    -1.6520 na         1 BH8       0.021900
     12 CAJ          4.4980    -0.8860    -1.1970 cc         1 BH8       0.025400
     13 CAI          4.5050     0.3620    -2.9950 cd         1 BH8      -0.118300
     14 CAH          4.9280    -0.8760    -3.3110 cc         1 BH8      -0.282300
     15 NAV          4.9090    -1.6200    -2.1950 na         1 BH8      -0.051100
     16 CAS          5.2940    -3.0300    -2.1080 c3         1 BH8       0.063300
     17 CAR          4.0660    -3.9100    -2.3540 c3         1 BH8      -0.111400
     18 CAQ          4.4680    -5.3830    -2.2620 c3         1 BH8      -0.081400
     19 CAP          3.2400    -6.2630    -2.5080 c3         1 BH8      -0.079400
     20 CAO          3.6420    -7.7360    -2.4180 c3         1 BH8      -0.083400
     21 CAN          2.4140    -8.6150    -2.6630 c3         1 BH8      -0.082400
     22 CAM          2.8160   -10.0890    -2.5720 c3         1 BH8      -0.082400
     23 CAL          1.5880   -10.9680    -2.8170 c3         1 BH8      -0.082400
     24 CAK          1.9900   -12.4420    -2.7280 c3         1 BH8      -0.085400
     25 CAA          0.7620   -13.3210    -2.9730 c3         1 BH8      -0.092100
     26 H3           1.8550     1.4890    -1.8810 hc         1 BH8       0.040700
     27 H6           4.1090     1.4000     0.1570 h1         1 BH8       0.071200
     28 H7           4.1080     2.4140    -1.2920 h1         1 BH8       0.071200
     29 H8           4.3830    -1.2210    -0.1730 h5         1 BH8       0.265000
     30 H9           4.4040     1.2020    -3.6710 h4         1 BH8       0.177000
     31 H10          5.2250    -1.2150    -4.2970 h4         1 BH8       0.138000
     32 H11          6.0480    -3.2450    -2.8560 h1         1 BH8       0.033700
     33 H12          5.6940    -3.2350    -1.1230 h1         1 BH8       0.033700
     34 H13          3.3120    -3.6940    -1.6060 hc         1 BH8       0.094700
     35 H14          3.6670    -3.7050    -3.3390 hc         1 BH8       0.094700
     36 H15          5.2220    -5.5990    -3.0100 hc         1 BH8       0.021700
     37 H16          4.8670    -5.5880    -1.2770 hc         1 BH8       0.021700
     38 H17          2.8400    -6.0580    -3.4930 hc         1 BH8       0.056200
     39 H18          2.4860    -6.0480    -1.7600 hc         1 BH8       0.056200
     40 H19          4.3950    -7.9510    -3.1660 hc         1 BH8       0.030200
     41 H20          4.0420    -7.9420    -1.4320 hc         1 BH8       0.030200
     42 H21          1.6610    -8.4000    -1.9150 hc         1 BH8       0.046700
     43 H22          2.0140    -8.4100    -3.6480 hc         1 BH8       0.046700
     44 H23          3.2170   -10.2940    -1.5870 hc         1 BH8       0.034700
     45 H24          3.5690   -10.3050    -3.3210 hc         1 BH8       0.034700
     46 H25          0.8350   -10.7540    -2.0680 hc         1 BH8       0.043200
     47 H26          1.1870   -10.7620    -3.8020 hc         1 BH8       0.043200
     48 H27          2.3910   -12.6480    -1.7430 hc         1 BH8       0.035200
     49 H28          2.7430   -12.6570    -3.4770 hc         1 BH8       0.035200
     50 H29          1.0460   -14.3650    -2.9100 hc         1 BH8       0.028033
     51 H30          0.3610   -13.1150    -3.9580 hc         1 BH8       0.028033
     52 H31          0.0090   -13.1060    -2.2240 hc         1 BH8       0.028033
@<TRIPOS>BOND
     1    25    24 1
     2    24    23 1
     3    22    23 1
     4    22    21 1
     5    21    20 1
     6    20    19 1
     7    19    18 1
     8    18    17 1
     9    17    16 1
    10    16    15 1
    11    15    12 1
    12    15    14 1
    13     8     6 1
    14    12    11 2
    15    14    13 2
    16    11    13 1
    17    11    10 1
    18    10     5 1
    19     7     6 1
    20     6     5 1
    21     6     9 1
    22     5     2 1
    23     2     4 1
    24     2     3 1
    25     2     1 1
    26     5    26 1
    27    10    27 1
    28    10    28 1
    29    12    29 1
    30    13    30 1
    31    14    31 1
    32    16    32 1
    33    16    33 1
    34    17    34 1
    35    17    35 1
    36    18    36 1
    37    18    37 1
    38    19    38 1
    39    19    39 1
    40    20    40 1
    41    20    41 1
    42    21    42 1
    43    21    43 1
    44    22    44 1
    45    22    45 1
    46    23    46 1
    47    23    47 1
    48    24    48 1
    49    24    49 1
    50    25    50 1
    51    25    51 1
    52    25    52 1
@<TRIPOS>SUBSTRUCTURE
     1 BH8         1 TEMP              0 ****  ****    0 ROOT
