@<TRIPOS>MOLECULE
BH8
   52    52     1     0     0
SMALL
bcc


@<TRIPOS>ATOM
      1 OAD         2.4350   -3.4760   -0.6470 o         1 BH8     -0.920000
      2 PAX         2.4680   -2.0960   -0.0690 p5        1 BH8      2.152000
      3 OAE         2.1720   -1.9850    1.3820 o         1 BH8     -0.920000
      4 OAB         4.2240   -1.8770    0.0140 os        1 BH8     -0.756000
      5 CAU         2.0970   -0.9180   -1.0890 c2        1 BH8     -1.486000
      6 PAY         0.2360    0.1580   -1.6340 p3        1 BH8      2.569000
      7 OAF        -0.8290   -0.8850   -1.5630 o         1 BH8     -1.227000
      8 OAG         0.1400    1.2820   -0.6530 o         1 BH8     -1.227000
      9 OAC         0.6500    0.5740   -3.0130 o         1 BH8     -1.227000
     10 CAT         2.8110    0.3480   -0.8300 c3        1 BH8      0.020000
     11 NAW         4.2660    0.3470   -1.0790 n3        1 BH8     -0.265000
     12 CAJ         4.9790   -0.8620   -0.4910 c3        1 BH8      0.262000
     13 CAI         4.7000    0.4090   -2.4200 c2        1 BH8     -0.079000
     14 CAH         5.6920   -0.4980   -2.6950 c2        1 BH8     -0.269000
     15 NAV         6.0050   -1.3100   -1.5570 n3        1 BH8     -0.254000
     16 CAS         6.0830   -2.7310   -1.8130 c3        1 BH8     -0.035000
     17 CAR         4.9270   -3.3840   -2.5610 c3        1 BH8     -0.222000
     18 CAQ         5.0790   -4.8890   -2.6310 c3        1 BH8     -0.114000
     19 CAP         3.7160   -5.5420   -2.7270 c3        1 BH8     -0.203000
     20 CAO         3.8020   -7.0470   -2.6000 c3        1 BH8     -0.138000
     21 CAN         2.4210   -7.6680   -2.6370 c3        1 BH8     -0.165000
     22 CAM         2.4790   -9.1690   -2.4440 c3        1 BH8     -0.153000
     23 CAL         1.0960   -9.7830   -2.4830 c3        1 BH8     -0.161000
     24 CAK         1.1450  -11.2820   -2.2760 c3        1 BH8     -0.158000
     25 CAA        -0.2310  -11.8940   -2.3170 c3        1 BH8     -0.207000
     26 H3          2.0610   -1.2190   -2.1480 ha        1 BH8      0.136000
     27 H6          2.7290    0.5880    0.2740 h1        1 BH8      0.090000
     28 H7          2.3910    1.2130   -1.4220 h1        1 BH8      0.090000
     29 H8          5.6430   -0.4480    0.3370 h3        1 BH8      0.046000
     30 H9          4.2530    1.1420   -3.0960 h4        1 BH8      0.141000
     31 H10         6.2370   -0.6370   -3.6260 h4        1 BH8      0.103000
     32 H11         7.0410   -2.9160   -2.3860 h1        1 BH8      0.044000
     33 H12         6.1730   -3.2290   -0.8050 h1        1 BH8      0.044000
     34 H13         4.8390   -2.9580   -3.5920 hc        1 BH8      0.129500
     35 H14         3.9680   -3.1370   -1.9940 hc        1 BH8      0.129500
     36 H15         5.7180   -5.1860   -3.5050 hc        1 BH8      0.028500
     37 H16         5.5980   -5.2610   -1.7080 hc        1 BH8      0.028500
     38 H17         3.0600   -5.1040   -1.9060 hc        1 BH8      0.139500
     39 H18         3.2380   -5.2740   -3.7040 hc        1 BH8      0.139500
     40 H19         4.4300   -7.4760   -3.4260 hc        1 BH8      0.045500
     41 H20         4.3040   -7.3120   -1.6330 hc        1 BH8      0.045500
     42 H21         1.7910   -7.2010   -1.8340 hc        1 BH8      0.095500
     43 H22         1.9310   -7.4340   -3.6180 hc        1 BH8      0.095500
     44 H23         2.9640   -9.4000   -1.4590 hc        1 BH8      0.061000
     45 H24         3.1180   -9.6310   -3.2420 hc        1 BH8      0.061000
     46 H25         0.4580   -9.3120   -1.6880 hc        1 BH8      0.084000
     47 H26         0.6130   -9.5560   -3.4700 hc        1 BH8      0.084000
     48 H27         1.7890  -11.7480   -3.0670 hc        1 BH8      0.067500
     49 H28         1.6270  -11.5050   -1.2870 hc        1 BH8      0.067500
     50 H29        -0.1750  -12.9980   -2.1580 hc        1 BH8      0.062333
     51 H30        -0.8790  -11.4550   -1.5200 hc        1 BH8      0.062333
     52 H31        -0.7170  -11.7040   -3.3040 hc        1 BH8      0.062333
@<TRIPOS>BOND
     1    1    2 1   
     2    2    3 1   
     3    2    4 1   
     4    2    5 1   
     5    4   12 1   
     6    5   10 1   
     7    5   26 1   
     8    6    7 1   
     9    6    8 1   
    10    6    9 1   
    11   10   11 1   
    12   10   27 1   
    13   10   28 1   
    14   11   12 1   
    15   11   13 1   
    16   12   15 1   
    17   12   29 1   
    18   13   14 1   
    19   13   30 1   
    20   14   15 1   
    21   14   31 1   
    22   15   16 1   
    23   16   17 1   
    24   16   32 1   
    25   16   33 1   
    26   17   18 1   
    27   17   34 1   
    28   17   35 1   
    29   18   19 1   
    30   18   36 1   
    31   18   37 1   
    32   19   20 1   
    33   19   38 1   
    34   19   39 1   
    35   20   21 1   
    36   20   40 1   
    37   20   41 1   
    38   21   22 1   
    39   21   42 1   
    40   21   43 1   
    41   22   23 1   
    42   22   44 1   
    43   22   45 1   
    44   23   24 1   
    45   23   46 1   
    46   23   47 1   
    47   24   25 1   
    48   24   48 1   
    49   24   49 1   
    50   25   50 1   
    51   25   51 1   
    52   25   52 1   
@<TRIPOS>SUBSTRUCTURE
     1 BH8         1 TEMP              0 ****  ****    0 ROOT
