@<TRIPOS>MOLECULE
molecule
   48    51     1     0     0
SMALL
bcc


@<TRIPOS>ATOM
      1 N1           0.0000     0.0000     0.0000 na         1 BH9      -0.041600
      2 C2           1.3490     0.0000     0.0000 cc         1 BH9      -0.095300
      3 C4           0.6110     0.0000     2.1110 cd         1 BH9       0.350200
      4 N5          -0.4370     0.0010     1.3300 nc         1 BH9      -0.508800
      5 C6           3.1700    -0.0010     1.7730 cd         1 BH9      -0.040000
      6 C7           3.6570     1.0670     2.4620 cc         1 BH9      -0.066300
      7 N8           4.9460     1.0750     2.9060 na         1 BH9       0.050700
      8 C9           5.7720     0.0080     2.6670 cc         1 BH9      -0.013300
      9 C10          5.2870    -1.1080     1.9550 cc         1 BH9      -0.095000
     10 C11          4.0020    -1.1130     1.5140 cd         1 BH9      -0.115000
     11 C12          5.6760     1.9990     3.6080 cc         1 BH9      -0.250100
     12 C13          6.9180     1.4800     3.7790 cd         1 BH9       0.213200
     13 C14          1.7620     0.0000     1.2990 cd         1 BH9      -0.268300
     14 N14          6.9560     0.2740     3.2020 nd         1 BH9      -0.353600
     15 N15          7.9800     2.1030     4.4470 ns         1 BH9      -0.443100
     16 C16          7.8120     3.3270     4.9870 c          1 BH9       0.683700
     17 C17          8.9330     3.9840     5.6910 ca         1 BH9      -0.154600
     18 C18         10.1700     3.3420     5.7930 ca         1 BH9      -0.081500
     19 C19         11.2130     3.9620     6.4510 ca         1 BH9      -0.138500
     20 C20         11.0350     5.2150     7.0100 ca         1 BH9      -0.042300
     21 C21          9.8130     5.8560     6.9120 ca         1 BH9      -0.138500
     22 C22          8.7630     5.2510     6.2520 ca         1 BH9      -0.081500
     23 C27         12.1780     5.8860     7.7280 c3         1 BH9      -0.028700
     24 C28         11.7230     7.2510     8.2480 c3         1 BH9      -0.081100
     25 C32         12.6210     5.0140     8.9040 c3         1 BH9      -0.081100
     26 C36         13.3490     6.0720     6.7600 c3         1 BH9      -0.081100
     27 O47          6.7390     3.8900     4.8950 o          1 BH9      -0.608100
     28 H2           1.9890    -0.0000    -0.8740 h4         1 BH9       0.176000
     29 H4           0.5970     0.0010     3.1940 h4         1 BH9       0.055100
     30 H7           3.0150     1.9170     2.6580 h4         1 BH9       0.169000
     31 H10          5.9340    -1.9550     1.7620 ha         1 BH9       0.158000
     32 H11          3.6180    -1.9650     0.9660 ha         1 BH9       0.145000
     33 H12          5.3270     2.9630     3.9590 h4         1 BH9       0.226000
     34 HN15         8.8620     1.6370     4.5280 hn         1 BH9       0.337500
     35 H18         10.3100     2.3610     5.3560 ha         1 BH9       0.142000
     36 H19         12.1720     3.4650     6.5320 ha         1 BH9       0.140500
     37 H21          9.6810     6.8380     7.3500 ha         1 BH9       0.140500
     38 H22          7.8070     5.7550     6.1770 ha         1 BH9       0.142000
     39 H28         12.5440     7.7330     8.7650 hc         1 BH9       0.038811
     40 H28A        10.8940     7.1190     8.9320 hc         1 BH9       0.038811
     41 H28B        11.4090     7.8690     7.4150 hc         1 BH9       0.038811
     42 H32         13.0820     4.1080     8.5300 hc         1 BH9       0.038811
     43 H32A        13.3370     5.5600     9.5080 hc         1 BH9       0.038811
     44 H32B        11.7600     4.7580     9.5090 hc         1 BH9       0.038811
     45 H36         13.7680     5.1050     6.5100 hc         1 BH9       0.038811
     46 H36A        14.1100     6.6850     7.2280 hc         1 BH9       0.038811
     47 H36B        12.9980     6.5580     5.8580 hc         1 BH9       0.038811
     48 HN1         -0.5870     0.0000    -0.8110 hn         1 BH9       0.332700
@<TRIPOS>BOND
     1     1     2 1
     2     1     4 1
     3     2    13 2
     4     2    28 1
     5     4     3 2
     6    13     3 1
     7     3    29 1
     8    13     5 1
     9    10     5 1
    10     5     6 2
    11     6     7 1
    12     6    30 1
    13     8     7 1
    14     7    11 1
    15     9     8 1
    16     8    14 2
    17    10     9 2
    18     9    31 1
    19    10    32 1
    20    11    12 2
    21    11    33 1
    22    14    12 1
    23    12    15 1
    24    15    16 1
    25    15    34 1
    26    27    16 2
    27    16    17 1
    28    18    17 ar
    29    17    22 ar
    30    18    19 ar
    31    18    35 1
    32    19    20 ar
    33    19    36 1
    34    20    21 ar
    35    20    23 1
    36    22    21 ar
    37    21    37 1
    38    22    38 1
    39    25    23 1
    40    23    26 1
    41    23    24 1
    42    24    39 1
    43    24    40 1
    44    24    41 1
    45    25    42 1
    46    25    43 1
    47    25    44 1
    48    26    45 1
    49    26    46 1
    50    26    47 1
    51     1    48 1
@<TRIPOS>SUBSTRUCTURE
     1 BH9         1 TEMP              0 ****  ****    0 ROOT
