@<TRIPOS>MOLECULE
BH9
   48    51     1     0     0
SMALL
bcc


@<TRIPOS>ATOM
      1 N1           0.0000     0.0000     0.0000 na         1 BH9       0.456400
      2 C2           1.3490     0.0000     0.0000 cc         1 BH9      -0.247300
      3 C4           0.6110     0.0000     2.1110 cd         1 BH9       0.414200
      4 N5          -0.4370     0.0010     1.3300 nc         1 BH9      -0.661800
      5 C6           3.1700    -0.0010     1.7730 cd         1 BH9       0.026000
      6 C7           3.6570     1.0670     2.4620 cc         1 BH9      -0.277300
      7 N8           4.9460     1.0750     2.9060 na         1 BH9       0.638700
      8 C9           5.7720     0.0080     2.6670 cc         1 BH9      -0.239300
      9 C10          5.2870    -1.1080     1.9550 cc         1 BH9      -0.034000
     10 C11          4.0020    -1.1130     1.5140 cd         1 BH9      -0.123000
     11 C12          5.6760     1.9990     3.6080 cc         1 BH9      -0.460100
     12 C13          6.9180     1.4800     3.7790 cd         1 BH9       0.058200
     13 C14          1.7620     0.0000     1.2990 cd         1 BH9      -0.277300
     14 N14          6.9560     0.2740     3.2020 nd         1 BH9      -0.281600
     15 N15          7.9800     2.1030     4.4470 ns         1 BH9       0.015900
     16 C16          7.8120     3.3270     4.9870 c          1 BH9       0.586700
     17 C17          8.9330     3.9840     5.6910 ca         1 BH9      -0.169600
     18 C18         10.1700     3.3420     5.7930 ca         1 BH9      -0.053000
     19 C19         11.2130     3.9620     6.4510 ca         1 BH9      -0.119000
     20 C20         11.0350     5.2150     7.0100 ca         1 BH9      -0.049300
     21 C21          9.8130     5.8560     6.9120 ca         1 BH9      -0.119000
     22 C22          8.7630     5.2510     6.2520 ca         1 BH9      -0.053000
     23 C27         12.1780     5.8860     7.7280 c3         1 BH9      -0.018700
     24 C28         11.7230     7.2510     8.2480 c3         1 BH9       0.005567
     25 C32         12.6210     5.0140     8.9040 c3         1 BH9       0.005567
     26 C36         13.3490     6.0720     6.7600 c3         1 BH9       0.005567
     27 O47          6.7390     3.8900     4.8950 o          1 BH9      -0.650100
     28 H2           1.9890    -0.0000    -0.8740 h4         1 BH9       0.149000
     29 H4           0.5970     0.0010     3.1940 h4         1 BH9       0.008100
     30 H7           3.0150     1.9170     2.6580 h4         1 BH9       0.146000
     31 H10          5.9340    -1.9550     1.7620 ha         1 BH9       0.122000
     32 H11          3.6180    -1.9650     0.9660 ha         1 BH9       0.118000
     33 H12          5.3270     2.9630     3.9590 h4         1 BH9       0.216000
     34 HN15         8.8620     1.6370     4.5280 hn         1 BH9       0.175500
     35 H18         10.3100     2.3610     5.3560 ha         1 BH9       0.114500
     36 H19         12.1720     3.4650     6.5320 ha         1 BH9       0.118500
     37 H21          9.6810     6.8380     7.3500 ha         1 BH9       0.118500
     38 H22          7.8070     5.7550     6.1770 ha         1 BH9       0.114500
     39 H28         12.5440     7.7330     8.7650 hc         1 BH9       0.007922
     40 H28A        10.8940     7.1190     8.9320 hc         1 BH9       0.007922
     41 H28B        11.4090     7.8690     7.4150 hc         1 BH9       0.007922
     42 H32         13.0820     4.1080     8.5300 hc         1 BH9       0.007922
     43 H32A        13.3370     5.5600     9.5080 hc         1 BH9       0.007922
     44 H32B        11.7600     4.7580     9.5090 hc         1 BH9       0.007922
     45 H36         13.7680     5.1050     6.5100 hc         1 BH9       0.007922
     46 H36A        14.1100     6.6850     7.2280 hc         1 BH9       0.007922
     47 H36B        12.9980     6.5580     5.8580 hc         1 BH9       0.007922
     48 HN1         -0.5870     0.0000    -0.8110 hn         1 BH9       0.148700
@<TRIPOS>BOND
     1     1     2 1   
     2     1     4 1   
     3     1    48 1   
     4     2    13 2   
     5     2    28 1   
     6     3     4 2   
     7     3    13 1   
     8     3    29 1   
     9     5     6 2   
    10     5    10 1   
    11     5    13 1   
    12     6     7 1   
    13     6    30 1   
    14     7     8 1   
    15     7    11 1   
    16     8     9 1   
    17     8    14 2   
    18     9    10 2   
    19     9    31 1   
    20    10    32 1   
    21    11    12 2   
    22    11    33 1   
    23    12    14 1   
    24    12    15 1   
    25    15    16 1   
    26    15    34 1   
    27    16    17 1   
    28    16    27 2   
    29    17    18 ar  
    30    17    22 ar  
    31    18    19 ar  
    32    18    35 1   
    33    19    20 ar  
    34    19    36 1   
    35    20    21 ar  
    36    20    23 1   
    37    21    22 ar  
    38    21    37 1   
    39    22    38 1   
    40    23    24 1   
    41    23    25 1   
    42    23    26 1   
    43    24    39 1   
    44    24    40 1   
    45    24    41 1   
    46    25    42 1   
    47    25    43 1   
    48    25    44 1   
    49    26    45 1   
    50    26    46 1   
    51    26    47 1   
@<TRIPOS>SUBSTRUCTURE
     1 BH9         1 TEMP              0 ****  ****    0 ROOT
