@<TRIPOS>MOLECULE
BHA
   17    17     1     0     0
SMALL
bcc


@<TRIPOS>ATOM
      1 C1'          0.0000     0.0000     0.0000 c          1 BHA       0.973200
      2 O1'          1.2150     0.0000     0.0000 o          1 BHA      -0.880800
      3 O2'         -0.6740     0.0000     1.1670 o          1 BHA      -0.880800
      4 C1          -0.7360    -0.0010    -1.2730 ca         1 BHA      -0.127600
      5 C2          -0.0360    -0.0000    -2.4910 ca         1 BHA       0.156100
      6 C3          -0.7370    -0.0070    -3.6830 ca         1 BHA      -0.227000
      7 C4          -2.1270    -0.0020    -3.6700 ca         1 BHA       0.014600
      8 C5          -2.8170    -0.0010    -2.4580 ca         1 BHA      -0.176000
      9 C6          -2.1340    -0.0000    -1.2770 ca         1 BHA      -0.043000
     10 O2           1.3200     0.0000    -2.4980 oh         1 BHA      -0.444100
     11 N4          -2.8310    -0.0030    -4.8690 nv         1 BHA      -0.559200
     12 H3          -0.2050    -0.0770    -4.6240 ha         1 BHA       0.097000
     13 H5          -3.9000    -0.0000    -2.4550 ha         1 BHA       0.089000
     14 H6          -2.6770     0.0010    -0.3390 ha         1 BHA       0.128000
     15 HO2          1.6310     0.7040    -3.0430 ho         1 BHA       0.370000
     16 HN41        -3.0910    -0.8700    -5.2950 hn         1 BHA       0.255300
     17 HN42        -3.0680     0.8630    -5.3100 hn         1 BHA       0.255300
@<TRIPOS>BOND
     1     1     2 1   
     2     1     3 1   
     3     1     4 1   
     4     4     5 ar  
     5     4     9 ar  
     6     5     6 ar  
     7     5    10 1   
     8     6     7 ar  
     9     6    12 1   
    10     7     8 ar  
    11     7    11 1   
    12     8     9 ar  
    13     8    13 1   
    14     9    14 1   
    15    10    15 1   
    16    11    16 1   
    17    11    17 1   
@<TRIPOS>SUBSTRUCTURE
     1 BHA         1 TEMP              0 ****  ****    0 ROOT
