@<TRIPOS>MOLECULE
BHB
   40    41     1     0     0
SMALL
bcc


@<TRIPOS>ATOM
      1 N4          0.4620   -1.1060    0.4450 nh        1 BHB     -0.822200
      2 C6          1.7770   -0.7020    0.6440 ca        1 BHB      0.144600
      3 C1          2.1200    0.1450    1.7290 ca        1 BHB     -0.141000
      4 C2          3.4390    0.4710    2.0260 ca        1 BHB     -0.064300
      5 C3          4.4940   -0.0470    1.2230 ca        1 BHB      0.138400
      6 N3          5.8240    0.2600    1.5170 nc        1 BHB     -0.712100
      7 C8          6.7810   -0.1730    0.6840 cd        1 BHB      0.649800
      8 N2          8.1410    0.0730    1.0170 nh        1 BHB     -0.888800
      9 N1          6.5220   -0.9560   -0.4620 n         1 BHB     -0.512400
     10 C7          5.2100   -1.3520   -0.7770 c         1 BHB      0.709100
     11 O1          5.0400   -2.0830   -1.7650 o         1 BHB     -0.588500
     12 C41         4.1410   -0.8610    0.1150 ca        1 BHB     -0.158600
     13 C5          2.8180   -1.1870   -0.1740 ca        1 BHB     -0.124000
     14 C9          3.7010    1.3960    3.1530 c3        1 BHB      0.029000
     15 S1          3.6640    0.6420    4.7570 ss        1 BHB     -0.221200
     16 C16         5.1740   -0.2390    4.9060 c3        1 BHB     -0.068300
     17 C17         4.9480   -1.6550    4.4100 c3        1 BHB      0.109800
     18 N18         6.1030   -2.5870    4.6680 n4        1 BHB     -0.680400
     19 C20         5.7410   -3.9730    4.2710 c3        1 BHB      0.083100
     20 C19         7.3350   -2.1430    3.9670 c3        1 BHB      0.083100
     21 HN41       -0.2360   -0.5110    0.8310 hn        1 BHB      0.412300
     22 HN42        0.2520   -1.4530   -0.4640 hn        1 BHB      0.412300
     23 H1          1.3180    0.5610    2.3620 ha        1 BHB      0.150000
     24 HN21        8.7610    0.0980    0.2330 hn        1 BHB      0.417300
     25 HN22        8.2670    0.8560    1.6250 hn        1 BHB      0.417300
     26 HN1         7.2580   -1.2320   -1.0750 hn        1 BHB      0.344500
     27 H5          2.6070   -1.8220   -1.0520 ha        1 BHB      0.172000
     28 H91         4.6560    1.9590    3.0110 h1        1 BHB      0.105200
     29 H92         2.8740    2.1550    3.2290 h1        1 BHB      0.105200
     30 H161        5.9940    0.2640    4.3350 h1        1 BHB      0.098700
     31 H162        5.4370   -0.2240    5.9940 h1        1 BHB      0.098700
     32 H171        4.0440   -2.0960    4.9230 hx        1 BHB      0.115200
     33 H172        4.7600   -1.6410    3.2950 hx        1 BHB      0.115200
     34 H201        5.5280   -4.0020    3.1690 hx        1 BHB      0.104533
     35 H202        4.8270   -4.2970    4.8370 hx        1 BHB      0.104533
     36 H203        6.5940   -4.6630    4.5070 hx        1 BHB      0.104533
     37 H191        7.6740   -1.1640    4.4010 hx        1 BHB      0.104533
     38 H192        7.1210   -2.0050    2.8730 hx        1 BHB      0.104533
     39 H193        8.1400   -2.9140    4.1010 hx        1 BHB      0.104533
     40 H181        6.2920   -2.5790    5.6790 hn        1 BHB      0.443800
@<TRIPOS>BOND
     1    1    2 1   
     2    1   21 1   
     3    1   22 1   
     4    2    3 ar  
     5    2   13 ar  
     6    3    4 ar  
     7    3   23 1   
     8    4    5 ar  
     9    4   14 1   
    10    5    6 1   
    11    5   12 ar  
    12    6    7 2   
    13    7    8 1   
    14    7    9 1   
    15    8   24 1   
    16    8   25 1   
    17    9   10 1   
    18    9   26 1   
    19   10   11 2   
    20   10   12 1   
    21   12   13 ar  
    22   13   27 1   
    23   14   15 1   
    24   14   28 1   
    25   14   29 1   
    26   15   16 1   
    27   16   17 1   
    28   16   30 1   
    29   16   31 1   
    30   17   18 1   
    31   17   32 1   
    32   17   33 1   
    33   18   19 1   
    34   18   20 1   
    35   18   40 1   
    36   19   34 1   
    37   19   35 1   
    38   19   36 1   
    39   20   37 1   
    40   20   38 1   
    41   20   39 1   
@<TRIPOS>SUBSTRUCTURE
     1 BHB         1 TEMP              0 ****  ****    0 ROOT
