@<TRIPOS>MOLECULE
molecule
   24    24     1     0     0
SMALL
bcc


@<TRIPOS>ATOM
      1 C1          -0.0070    -0.0070     1.4030 ca         1 BHC      -0.100933
      2 CO1         -0.0150     0.0200     2.8840 c          1 BHC       0.953200
      3 O11         -0.0170     1.0820     3.4710 o          1 BHC      -0.926133
      4 O12         -0.0190    -1.1330     3.5790 o          1 BHC      -0.926133
      5 C2           1.2110    -0.0210     0.7080 ca         1 BHC      -0.100933
      6 CO2          2.4900    -0.0080     1.4550 c          1 BHC       0.953200
      7 O21          3.0130    -1.0540     1.7810 o          1 BHC      -0.926133
      8 O22          3.0720     1.1630     1.7730 o          1 BHC      -0.926133
      9 C3           1.2180    -0.0470    -0.6940 ca         1 BHC      -0.100933
     10 CO3          2.5050    -0.0630    -1.4280 c          1 BHC       0.953200
     11 O31          3.0310    -1.1200    -1.7080 o          1 BHC      -0.926133
     12 O32          3.0910     1.0960    -1.7830 o          1 BHC      -0.926133
     13 C4           0.0070    -0.0600    -1.4010 ca         1 BHC      -0.100933
     14 CO4          0.0150    -0.0890    -2.8830 c          1 BHC       0.953200
     15 O41          0.0170    -1.1520    -3.4690 o          1 BHC      -0.926133
     16 O42          0.0190     1.0640    -3.5780 o          1 BHC      -0.926133
     17 C5          -1.2110    -0.0460    -0.7070 ca         1 BHC      -0.100933
     18 CO5         -2.4900    -0.0600    -1.4540 c          1 BHC       0.953200
     19 O51         -3.0140    -1.1170    -1.7400 o          1 BHC      -0.926133
     20 O52         -3.0710     1.0990    -1.8160 o          1 BHC      -0.926133
     21 C6          -1.2180    -0.0250     0.6950 ca         1 BHC      -0.100933
     22 CO6         -2.5050    -0.0100     1.4290 c          1 BHC       0.953200
     23 O61         -3.0350    -1.0550     1.7460 o          1 BHC      -0.926133
     24 O62         -3.0870     1.1620     1.7450 o          1 BHC      -0.926133
@<TRIPOS>BOND
     1     1     2 1
     2     1     5 ar
     3     1    21 ar
     4     2     3 1
     5     2     4 1
     6     5     6 1
     7     5     9 ar
     8     6     7 1
     9     6     8 1
    10     9    10 1
    11     9    13 ar
    12    10    11 1
    13    10    12 1
    14    13    14 1
    15    13    17 ar
    16    14    15 1
    17    14    16 1
    18    17    18 1
    19    17    21 ar
    20    18    19 1
    21    18    20 1
    22    21    22 1
    23    22    23 1
    24    22    24 1
@<TRIPOS>SUBSTRUCTURE
     1 BHC         1 TEMP              0 ****  ****    0 ROOT
