@<TRIPOS>MOLECULE
BHC
   24    24     1     0     0
SMALL
bcc


@<TRIPOS>ATOM
      1 C1         -0.0070    0.0030    1.4170 ca        1 BHC     -0.097600
      2 CO1        -0.0150    0.0240    2.9390 c         1 BHC      0.950200
      3 O11        -0.0190    1.1250    3.5910 o         1 BHC     -0.926300
      4 O12        -0.0190   -1.0590    3.6200 o         1 BHC     -0.926300
      5 C2          1.2230   -0.0070    0.7150 ca        1 BHC     -0.097600
      6 CO2         2.5380    0.0030    1.4830 c         1 BHC      0.950200
      7 O21         3.1120   -1.0850    1.8340 o         1 BHC     -0.926300
      8 O22         3.1130    1.1000    1.8050 o         1 BHC     -0.926300
      9 C3          1.2300   -0.0260   -0.7010 ca        1 BHC     -0.097600
     10 CO3         2.5530   -0.0360   -1.4560 c         1 BHC      0.950200
     11 O31         3.1320   -1.1330   -1.7710 o         1 BHC     -0.926300
     12 O32         3.1320    1.0510   -1.8000 o         1 BHC     -0.926300
     13 C4          0.0070   -0.0350   -1.4160 ca        1 BHC     -0.097600
     14 CO4         0.0150   -0.0560   -2.9390 c         1 BHC      0.950200
     15 O41         0.0190   -1.1570   -3.5900 o         1 BHC     -0.926300
     16 O42         0.0190    1.0280   -3.6200 o         1 BHC     -0.926300
     17 C5         -1.2230   -0.0250   -0.7140 ca        1 BHC     -0.097600
     18 CO5        -2.5380   -0.0350   -1.4830 c         1 BHC      0.950200
     19 O51        -3.1130   -1.1310   -1.8040 o         1 BHC     -0.926300
     20 O52        -3.1120    1.0530   -1.8330 o         1 BHC     -0.926300
     21 C6         -1.2300   -0.0060    0.7020 ca        1 BHC     -0.097600
     22 CO6        -2.5530    0.0050    1.4560 c         1 BHC      0.950200
     23 O61        -3.1320   -1.0830    1.8010 o         1 BHC     -0.926300
     24 O62        -3.1310    1.1010    1.7720 o         1 BHC     -0.926300
@<TRIPOS>BOND
     1    1    2 1   
     2    1    5 ar  
     3    1   21 ar  
     4    2    3 1   
     5    2    4 1   
     6    5    6 1   
     7    5    9 ar  
     8    6    7 1   
     9    6    8 1   
    10    9   10 1   
    11    9   13 ar  
    12   10   11 1   
    13   10   12 1   
    14   13   14 1   
    15   13   17 ar  
    16   14   15 1   
    17   14   16 1   
    18   17   18 1   
    19   17   21 ar  
    20   18   19 1   
    21   18   20 1   
    22   21   22 1   
    23   22   23 1   
    24   22   24 1   
@<TRIPOS>SUBSTRUCTURE
     1 BHC         1 TEMP              0 ****  ****    0 ROOT
