@<TRIPOS>MOLECULE
BHE
   68    60     1     0     0
SMALL
bcc


@<TRIPOS>ATOM
      1 C1          0.2750   -1.2850   -0.6460 c1        1 BHE     -0.083000
      2 C2          2.2980    0.7220    0.1940 c1        1 BHE     -0.085000
      3 O2          2.6270    0.7180   -1.0430 oh        1 BHE     -0.128000
      4 C3          3.4670   -1.8250    2.7340 c2        1 BHE     -0.121500
      5 O3          4.0440   -0.8550    1.9690 oh        1 BHE     -0.297000
      6 C4          2.1510   -2.0590    2.8960 c2        1 BHE     -0.121500
      7 O4          1.1300   -1.4080    2.2360 oh        1 BHE     -0.297000
      8 C5         -0.7200   -3.1920    0.4330 c3        1 BHE     -0.211000
      9 O5         -0.7260   -2.0650   -0.5160 os        1 BHE     -0.118000
     10 C6         -0.8390   -4.4860   -0.1720 c1        1 BHE     -0.046000
     11 O6         -8.3490    3.2680    0.6400 oh        1 BHE     -0.259000
     12 C6B        -0.4170    0.6920   10.4390 c3        1 BHE     -0.277000
     13 C5B        -1.7110    4.1420    8.4150 c3        1 BHE     -0.212000
     14 C4B        -1.6100    2.9210    7.5360 c3        1 BHE     -0.163000
     15 C3B        -2.0050    3.2350    6.1090 c3        1 BHE     -0.135000
     16 C2B        -1.8880    2.0050    5.2320 c3        1 BHE     -0.236000
     17 C1B        -2.4100    2.3060    3.8700 c1        1 BHE     -0.024000
     18 C1A        -2.1400    2.0340    1.5700 c3        1 BHE      0.202000
     19 O5A        -3.3760    1.3750    1.5150 oh        1 BHE     -0.343000
     20 C5A        -6.0900    3.5580    0.1120 c2        1 BHE     -0.275000
     21 C6A        -7.3760    3.6380   -0.2630 c2        1 BHE     -0.021000
     22 C4A        -4.9750    3.9620   -0.7830 c3        1 BHE      0.026000
     23 O4A        -3.7560    3.3370   -0.4240 oh        1 BHE     -0.354000
     24 C3A        -0.9680    1.8520   -0.6270 c2        1 BHE      0.015000
     25 O3A        -0.1230    1.2830   -1.5250 oh        1 BHE     -0.332000
     26 C2A        -1.1840    1.3810    0.6230 c2        1 BHE     -0.138000
     27 O2A        -0.4950    0.2610    1.0580 oh        1 BHE     -0.279000
     28 H1         -1.0820   -0.2280    1.6540 ho        1 BHE      0.234000
     29 H2          1.1980   -1.4440   -0.0460 ha        1 BHE      0.069000
     30 HO2         2.0900    1.2930   -1.6370 ho        1 BHE      0.190000
     31 H3          1.4580    1.3730    0.5240 ha        1 BHE      0.047000
     32 HO3         3.3850   -0.4590    1.3540 ho        1 BHE      0.243000
     33 H4          4.2410   -2.3900    3.2790 h4        1 BHE      0.161000
     34 HO4         1.4010   -0.4880    2.0760 ho        1 BHE      0.243000
     35 H5          0.1970   -3.1390    1.0930 h1        1 BHE      0.179500
     36 H6          1.7500   -2.8580    3.5360 h4        1 BHE      0.161000
     37 H6A        -0.8810   -4.5610   -1.2670 ha        1 BHE      0.073000
     38 H6B        -1.6290   -3.0160    1.0820 h1        1 BHE      0.179500
     39 HO6        -9.2040    3.3860    0.2040 ho        1 BHE      0.215000
     40 H6BA       -0.2620   -0.2930    9.9480 hc        1 BHE      0.069750
     41 C19        -0.8430    3.8060   12.2240 c2        1 BHE     -0.560000
     42 H6BB       -1.4210    3.8890    9.4640 hc        1 BHE      0.072667
     43 H5B         0.5390    1.0340   10.8930 hc        1 BHE      0.069750
     44 H5BA       -0.7570    1.4340    9.6810 hc        1 BHE      0.069750
     45 H4B        -2.7560    4.5360    8.4230 hc        1 BHE      0.072667
     46 H4BA       -1.0350    4.9510    8.0460 hc        1 BHE      0.072667
     47 H3B        -0.5590    2.5280    7.5570 hc        1 BHE      0.078500
     48 H3BA       -2.2730    2.1110    7.9390 hc        1 BHE      0.078500
     49 H2B        -1.3450    4.0470    5.7050 hc        1 BHE      0.089500
     50 H2BA       -3.0590    3.6180    6.0800 hc        1 BHE      0.089500
     51 H1B        -0.8310    1.6250    5.2390 hc        1 BHE      0.104000
     52 H1BA       -2.5420    1.1830    5.6400 hc        1 BHE      0.104000
     53 H1A        -2.2320    3.1430    1.4050 h2        1 BHE      0.136000
     54 H5A        -3.9980    1.8900    2.0530 ho        1 BHE      0.238000
     55 H6AA       -7.7160    3.9850   -1.2500 h4        1 BHE      0.126000
     56 H6AB       -5.8050    3.2010    1.1130 ha        1 BHE      0.148000
     57 H4A        -5.2120    3.7350   -1.8590 h1        1 BHE      0.087000
     58 HO4A       -3.9070    2.3820   -0.4070 ho        1 BHE      0.218000
     59 H3A        -4.7630    5.0640   -0.6800 h1        1 BHE      0.087000
     60 HO3A       -0.0390    0.2960   -1.3350 ho        1 BHE      0.286000
     61 H2A        -1.4230    2.7840   -1.0040 h4        1 BHE      0.180000
     62 H34        -1.1550    4.7810   11.8170 ha        1 BHE      0.188500
     63 H35        -1.1880    0.5920   11.2350 hc        1 BHE      0.069750
     64 C20        -0.5800    3.6110   13.4880 c1        1 BHE      0.167000
     65 H36        -0.7790    3.0190   11.4540 ha        1 BHE      0.188500
     66 H37        -0.0590    1.3230   13.1970 ha        1 BHE      0.007500
     67 H38         0.0400    1.3950   13.8660 ha        1 BHE      0.007500
     68 O1         -1.6580    1.7720    2.9210 os        1 BHE     -0.228000
@<TRIPOS>BOND
     1    1    9 1
     2    1   29 1
     3    2    3 1
     4    2   31 1
     5    3   30 1
     6    4    5 1
     7    4    6 1
     8    4   33 1
     9    5   32 1
    10    6    7 1
    11    6   36 1
    12    7   34 1
    13    8    9 1
    14    8   10 1
    15    8   35 1
    16    8   38 1
    17   10   37 1
    18   11   21 1
    19   11   39 1
    20   12   40 1
    21   12   43 1
    22   12   44 1
    23   12   63 1
    24   13   14 1
    25   13   42 1
    26   13   45 1
    27   13   46 1
    28   14   15 1
    29   14   47 1
    30   14   48 1
    31   15   16 1
    32   15   49 1
    33   15   50 1
    34   16   17 1
    35   16   51 1
    36   16   52 1
    37   17   68 1
    38   18   19 1
    39   18   26 1
    40   18   53 1
    41   18   68 1
    42   19   54 1
    43   20   21 1
    44   20   22 1
    45   20   56 1
    46   21   55 1
    47   22   23 1
    48   22   57 1
    49   22   59 1
    50   23   58 1
    51   24   25 1
    52   24   26 1
    53   24   61 1
    54   25   60 1
    55   26   27 1
    56   27   28 1
    57   41   62 1
    58   41   64 1
    59   41   65 1
    60   66   67 1
@<TRIPOS>SUBSTRUCTURE
     1 BHE         1 TEMP              0 ****  ****    0 ROOT
