@<TRIPOS>MOLECULE
BHF
   33    36     1     0     0
SMALL
bcc


@<TRIPOS>ATOM
      1 C8          0.0730    0.0780   -0.1060 cc        1 BHF     -0.312200
      2 C9          1.5350    0.0870   -0.1210 c         1 BHF      0.589900
      3 O2          2.1960    0.1180   -1.1690 o         1 BHF     -0.547100
      4 C10         2.1440    0.0540    1.2160 ca        1 BHF     -0.219600
      5 C11         3.5570    0.0490    1.3700 ca        1 BHF     -0.058000
      6 C12         4.1250    0.0170    2.6150 ca        1 BHF     -0.152000
      7 C13         3.3140   -0.0100    3.7870 ca        1 BHF      0.003000
      8 C14         3.8890   -0.0430    5.0850 ca        1 BHF     -0.130000
      9 C15         3.0910   -0.0680    6.2050 ca        1 BHF     -0.108000
     10 C16         1.6820   -0.0630    6.0800 ca        1 BHF     -0.137000
     11 C17         1.0970   -0.0320    4.8360 ca        1 BHF     -0.093000
     12 C18         1.9020   -0.0060    3.6680 ca        1 BHF     -0.062000
     13 C19         1.3440    0.0270    2.3480 ca        1 BHF      0.166100
     14 O1         -0.0400    0.0310    2.3040 os        1 BHF     -0.222200
     15 C7         -0.6330    0.0560    1.0480 cd        1 BHF      0.190900
     16 C1         -2.0940    0.0460    1.1500 ca        1 BHF     -0.077800
     17 C2         -2.7260   -0.5490    2.2510 ca        1 BHF     -0.093000
     18 C3         -4.1170   -0.5710    2.3290 ca        1 BHF     -0.135500
     19 C4         -4.8850    0.0020    1.3150 ca        1 BHF     -0.108000
     20 C5         -4.2590    0.6020    0.2220 ca        1 BHF     -0.135500
     21 C6         -2.8680    0.6270    0.1360 ca        1 BHF     -0.093000
     22 H8         -0.4320    0.0800   -1.0830 ha        1 BHF      0.169000
     23 H11         4.1700    0.0710    0.4530 ha        1 BHF      0.162000
     24 H12         5.2190    0.0130    2.7350 ha        1 BHF      0.141000
     25 H14         4.9860   -0.0460    5.1750 ha        1 BHF      0.138000
     26 H15         3.5390   -0.0930    7.2100 ha        1 BHF      0.136000
     27 H16         1.0630   -0.0830    6.9890 ha        1 BHF      0.137000
     28 H17         0.0020   -0.0260    4.7220 ha        1 BHF      0.146000
     29 H2         -2.1160   -0.9970    3.0520 ha        1 BHF      0.145000
     30 H3         -4.6080   -1.0420    3.1930 ha        1 BHF      0.138500
     31 H4         -5.9830   -0.0170    1.3780 ha        1 BHF      0.137000
     32 H5         -4.8630    1.0580   -0.5760 ha        1 BHF      0.138500
     33 H6         -2.3790    1.1100   -0.7240 ha        1 BHF      0.145000
@<TRIPOS>BOND
     1    1    2 1   
     2    1   15 2   
     3    1   22 1   
     4    2    3 2   
     5    2    4 1   
     6    4    5 ar  
     7    4   13 ar  
     8    5    6 ar  
     9    5   23 1   
    10    6    7 ar  
    11    6   24 1   
    12    7    8 ar  
    13    7   12 ar  
    14    8    9 ar  
    15    8   25 1   
    16    9   10 ar  
    17    9   26 1   
    18   10   11 ar  
    19   10   27 1   
    20   11   12 ar  
    21   11   28 1   
    22   12   13 ar  
    23   13   14 1   
    24   14   15 1   
    25   15   16 1   
    26   16   17 ar  
    27   16   21 ar  
    28   17   18 ar  
    29   17   29 1   
    30   18   19 ar  
    31   18   30 1   
    32   19   20 ar  
    33   19   31 1   
    34   20   21 ar  
    35   20   32 1   
    36   21   33 1   
@<TRIPOS>SUBSTRUCTURE
     1 BHF         1 TEMP              0 ****  ****    0 ROOT
