@<TRIPOS>MOLECULE
molecule
   22    21     1     0     0
SMALL
bcc


@<TRIPOS>ATOM
      1 C4           0.0000     0.0000     0.0000 c3         1 BHH      -0.092100
      2 C3           1.5290     0.0000     0.0000 c3         1 BHH      -0.078400
      3 C2           2.0410     0.0000     1.4420 c3         1 BHH      -0.105400
      4 C1           3.5700    -0.0000     1.4420 c3         1 BHH       0.265800
      5 NE           4.0590    -0.0000     2.8210 nu         1 BHH      -0.898200
      6 CZ           5.4110    -0.0000     3.0730 c2         1 BHH       0.877100
      7 NH1          5.8700     0.0000     4.3680 nu         1 BHH      -0.757700
      8 NH2          6.2580    -0.0000     2.0810 n2         1 BHH      -0.952100
      9 OH           7.2620    -0.0000     4.6250 oh         1 BHH      -0.329300
     10 H41         -0.3610     0.0000    -1.0210 hc         1 BHH       0.033700
     11 H42         -0.3610    -0.8850     0.5110 hc         1 BHH       0.033700
     12 H43         -0.3610     0.8840     0.5110 hc         1 BHH       0.033700
     13 H31          1.8900    -0.8840    -0.5110 hc         1 BHH       0.045700
     14 H32          1.8900     0.8840    -0.5110 hc         1 BHH       0.045700
     15 H21          1.6800    -0.8840     1.9530 hc         1 BHH       0.042700
     16 H22          1.6800     0.8840     1.9530 hc         1 BHH       0.042700
     17 H11          3.9310     0.8840     0.9310 h1         1 BHH       0.054700
     18 H12          3.9310    -0.8840     0.9310 h1         1 BHH       0.054700
     19 HE1          3.4090     0.0000     3.5820 hn         1 BHH       0.428800
     20 HH11         5.2200     0.0000     5.1290 hn         1 BHH       0.428800
     21 HH21         7.2420    -0.0000     2.2630 hn         1 BHH       0.416400
     22 HH1          7.4100    -0.0000     5.5560 ho         1 BHH       0.408000
@<TRIPOS>BOND
     1     1     2 1
     2     1    10 1
     3     1    11 1
     4     1    12 1
     5     2     3 1
     6     2    13 1
     7     2    14 1
     8     3     4 1
     9     3    15 1
    10     3    16 1
    11     4     5 1
    12     4    17 1
    13     4    18 1
    14     5     6 1
    15     5    19 1
    16     6     7 1
    17     6     8 2
    18     7     9 1
    19     7    20 1
    20     8    21 1
    21     9    22 1
@<TRIPOS>SUBSTRUCTURE
     1 BHH         1 TEMP              0 ****  ****    0 ROOT
