@<TRIPOS>MOLECULE
molecule
   26    25     1     0     0
SMALL
bcc


@<TRIPOS>ATOM
      1 O1           1.4280     0.0000     0.0000 oh         1 BHI      -0.577800
      2 O2          -0.2660     4.7830    -7.5250 o          1 BHI      -0.883500
      3 O3          -0.2990     2.2730    -7.2730 o          1 BHI      -0.883500
      4 O4           1.8040     3.4760    -6.5690 o          1 BHI      -0.883500
      5 P5           0.1970     3.5170    -6.6450 p5         1 BHI       1.187900
      6 O6          -0.4060     3.6460    -5.1590 os         1 BHI      -0.652800
      7 O7           1.7020     2.3320    -4.3020 o          1 BHI      -0.800500
      8 O8          -0.4020     1.1270    -5.0020 o          1 BHI      -0.800500
      9 P9           0.0940     2.3540    -4.3390 p5         1 BHI       1.248800
     10 C10         -0.5090     0.0000     1.4430 c3         1 BHI      -0.039000
     11 C11         -0.5110    -1.2480    -0.7210 c3         1 BHI      -0.117100
     12 C13         -0.5100     1.2500    -0.7200 c3         1 BHI      -0.078400
     13 C14          0.0000     0.0000     0.0000 c3         1 BHI       0.156800
     14 O15         -0.4770     2.4180    -2.8350 os         1 BHI      -0.559200
     15 Br           0.1450    -1.6060     2.3680 br         1 BHI      -0.307400
     16 HO1          1.7420    -0.3790     0.8040 ho         1 BHI       0.380000
     17 H101        -1.5920     0.0010     1.4430 h1         1 BHI       0.060200
     18 H102        -0.1470     0.8840     1.9530 h1         1 BHI       0.060200
     19 H111        -1.5190    -1.0710    -1.0790 hc         1 BHI       0.046033
     20 H112        -0.5130    -2.0860    -0.0350 hc         1 BHI       0.046033
     21 H113         0.1360    -1.4700    -1.5610 hc         1 BHI       0.046033
     22 H121         1.0820     1.2500    -2.1640 h1         1 BHI       0.057200
     23 H122        -0.3630     0.3670    -2.6740 h1         1 BHI       0.057200
     24 H131        -0.1480     2.1340    -0.2090 hc         1 BHI       0.034200
     25 H132        -1.5930     1.2500    -0.7190 hc         1 BHI       0.034200
     26 C12         -0.0010     1.2510    -2.1630 c3         1 BHI       0.167400
@<TRIPOS>BOND
     1     1    13 1
     2     1    16 1
     3     2     5 1
     4     3     5 1
     5     4     5 1
     6     5     6 1
     7     6     9 1
     8     7     9 1
     9     8     9 1
    10     9    14 1
    11    10    13 1
    12    10    15 1
    13    10    17 1
    14    10    18 1
    15    11    13 1
    16    11    19 1
    17    11    20 1
    18    11    21 1
    19    26    12 1
    20    26    14 1
    21    26    22 1
    22    26    23 1
    23    12    13 1
    24    12    24 1
    25    12    25 1
@<TRIPOS>SUBSTRUCTURE
     1 BHI         1 TEMP              0 ****  ****    0 ROOT
