@<TRIPOS>MOLECULE
molecule
   94   100     1     0     0
SMALL
bcc


@<TRIPOS>ATOM
      1 C4           0.0000     0.0000     0.0000 c3         1 BHJ      -0.287200
      2 C5           1.5310     0.0000     0.0000 c3         1 BHJ      -0.043100
      3 C13         -1.9530     1.2300     0.7360 c3         1 BHJ      -0.015200
      4 C22         -5.0250     5.4470     3.3010 cc         1 BHJ       0.395800
      5 C1           1.5490     1.1180     2.1190 c3         1 BHJ      -0.043100
      6 C2           0.0180     1.1280     2.1400 c3         1 BHJ      -0.287200
      7 C23         -4.9800     6.0150     2.0200 cd         1 BHJ      -0.291600
      8 C31         -5.1470     6.5470    -0.7420 c3         1 BHJ       0.224800
      9 C15         -2.4100     2.5700     1.3150 c3         1 BHJ      -0.107400
     10 C17         -3.9380     2.6410     1.2910 c3         1 BHJ       0.065300
     11 C24         -4.5760     5.0590     1.1510 cc         1 BHJ      -0.060600
     12 C30         -4.3940     5.2750    -0.3310 c3         1 BHJ       0.016900
     13 C33         -5.3140     7.4320     1.6200 c3         1 BHJ       0.263100
     14 C39         -5.4140     6.1430     4.5540 ca         1 BHJ      -0.133500
     15 C41         -6.1000     5.4530     5.5470 ca         1 BHJ      -0.077000
     16 C42         -6.4620     6.1140     6.7230 ca         1 BHJ       0.033000
     17 C43         -6.1320     7.4620     6.8930 ca         1 BHJ       0.042400
     18 C44         -5.4510     8.1380     5.8990 ca         1 BHJ      -0.116000
     19 C45         -5.0870     7.4850     4.7370 ca         1 BHJ      -0.102000
     20 C58         -5.3480    10.1290    -0.7500 c3         1 BHJ      -0.260300
     21 C62         -7.1690     5.4120     7.7520 ch         1 BHJ      -0.093000
     22 C64         -7.7370     4.8210     8.5930 cg         1 BHJ      -0.088000
     23 C66         -8.4470     4.6480     9.8660 ca         1 BHJ       0.042000
     24 C68         -8.1370     3.8170    10.7810 ca         1 BHJ      -0.079000
     25 C69         -8.7010     3.6290    11.8740 ca         1 BHJ      -0.005300
     26 C70         -9.8100     4.2700    12.3840 ca         1 BHJ      -0.072300
     27 C71        -10.3780     5.3650    11.4020 ca         1 BHJ      -0.114000
     28 C72        -10.0220     4.6320     9.8690 ca         1 BHJ      -0.088000
     29 C79        -10.5420     4.1580    13.5890 c3         1 BHJ      -0.069100
     30 C80        -10.0330     3.1290    14.5460 c3         1 BHJ      -0.016500
     31 C82         -8.3300     2.6300    12.9770 c3         1 BHJ       0.086100
     32 C88        -11.3120     2.5190    15.6990 c          1 BHJ       0.650100
     33 C94        -12.4520    -0.5900    14.9420 c3         1 BHJ      -0.055500
     34 C95        -11.6950    -1.7720    14.9590 c3         1 BHJ      -0.101900
     35 C96        -10.6090    -2.2340    14.0460 c3         1 BHJ      -0.026400
     36 C97         -9.7560    -1.2170    14.2460 c3         1 BHJ      -0.101900
     37 C98        -10.1380     0.3480    14.0560 c3         1 BHJ      -0.055500
     38 N19         -4.3760     3.9240     1.8460 na         1 BHJ       0.060400
     39 N21         -4.6660     4.1830     3.1940 nd         1 BHJ      -0.491800
     40 N3          -0.4860     1.1620     0.7590 n3         1 BHJ      -0.241600
     41 N32         -4.8600     7.6120     0.2300 n3         1 BHJ      -0.838500
     42 N81         -9.3410     1.9660    14.0660 n7         1 BHJ      -0.728200
     43 N92        -11.2970     0.7650    14.8720 n          1 BHJ      -0.541800
     44 O54         -3.2670     8.5680    -1.3410 o          1 BHJ      -0.621800
     45 O56         -3.4290     9.4370     0.9700 o          1 BHJ      -0.621800
     46 O6           2.0020     0.0000     1.3500 os         1 BHJ      -0.152600
     47 O90        -11.2170     3.2460    16.5560 o          1 BHJ      -0.444100
     48 S52         -4.0450     8.9800    -0.2270 s6         1 BHJ       1.336900
     49 Cl6         -6.5810     8.2880     8.3520 cl         1 BHJ      -0.091400
     50 H1          -0.3120     0.1630    -1.0240 h1         1 BHJ       0.112200
     51 H2          -0.0890     1.0770     0.0790 h1         1 BHJ       0.112200
     52 H3           1.4210    -0.5900     0.9020 h1         1 BHJ       0.107200
     53 H4           1.8250    -0.7650    -0.7080 h1         1 BHJ       0.107200
     54 H5          -2.8860     0.6880     0.6490 h1         1 BHJ       0.089200
     55 H6          -1.3790     1.5290    -0.1330 h1         1 BHJ       0.089200
     56 H7           1.8650     1.0250     3.1510 h1         1 BHJ       0.107200
     57 H8           1.8880     0.0910     2.0600 h1         1 BHJ       0.107200
     58 H9          -0.3540     1.0170     1.1290 h1         1 BHJ       0.112200
     59 H10         -0.7370     1.5890     2.7650 h1         1 BHJ       0.112200
     60 H11         -4.6290     7.3090    -1.3100 h1         1 BHJ       0.056700
     61 H12         -6.1830     6.7430    -0.9890 h1         1 BHJ       0.056700
     62 H13         -2.4760     3.2730     0.4940 hc         1 BHJ       0.083700
     63 H14         -1.7210     2.5780     2.1510 hc         1 BHJ       0.083700
     64 H15         -4.3800     2.5430     0.3070 h1         1 BHJ       0.073200
     65 H16         -4.5960     2.1580     2.0040 h1         1 BHJ       0.073200
     66 H17         -4.9340     4.4870    -0.8430 hc         1 BHJ       0.062700
     67 H18         -3.4300     5.2860    -0.8250 hc         1 BHJ       0.062700
     68 H19         -4.4300     7.7760     2.1430 h1         1 BHJ       0.075700
     69 H20         -6.2410     7.8560     1.9880 h1         1 BHJ       0.075700
     70 H21         -6.5570     4.5480     5.1660 ha         1 BHJ       0.159000
     71 H22         -5.0260     9.0680     6.2560 ha         1 BHJ       0.153000
     72 H23         -4.5460     7.8500     3.8730 ha         1 BHJ       0.157000
     73 H24         -4.8400    11.0840    -0.7970 h1         1 BHJ       0.098700
     74 H25         -5.9830    10.4370     0.0720 h1         1 BHJ       0.098700
     75 H26         -5.8630     9.9320    -1.6830 h1         1 BHJ       0.098700
     76 H27         -7.0700     3.7570    10.9580 ha         1 BHJ       0.110000
     77 H28        -11.3970     5.7280    11.4580 ha         1 BHJ       0.127000
     78 H29        -10.3150     5.4660     9.2420 ha         1 BHJ       0.078000
     79 H30        -11.4050     3.5080    13.5080 hc         1 BHJ       0.091700
     80 H31        -10.7860     5.1430    13.9660 hc         1 BHJ       0.091700
     81 H32         -9.4830     3.7600    15.2340 h1         1 BHJ       0.030700
     82 H33         -7.5560     2.8500    13.7020 h1         1 BHJ       0.038700
     83 H34         -7.8930     1.8240    12.3980 h1         1 BHJ       0.038700
     84 H36        -12.8320    -0.3190    13.9640 h1         1 BHJ       0.139950
     85 H37        -12.5310    -2.4610    14.9840 hc         1 BHJ       0.020200
     86 H38        -11.3550    -1.8970    15.9800 hc         1 BHJ       0.020200
     87 H39        -10.3210    -3.2730    14.1600 hc         1 BHJ       0.058700
     88 H40        -11.2270    -2.0320    13.1790 hc         1 BHJ       0.058700
     89 H41         -9.0020    -1.2700    13.4700 hc         1 BHJ       0.020200
     90 H42         -9.0360    -1.3030    15.0510 hc         1 BHJ       0.020200
     91 H43        -10.3210     0.3590    12.9890 h1         1 BHJ       0.139950
     92 H44         -9.3400     1.0800    14.0730 h1         1 BHJ       0.139950
     93 H46         -9.0330     1.3360    14.7800 hn         1 BHJ       0.453800
     94 H35        -12.9540     0.0780    15.6310 h1         1 BHJ       0.139950
@<TRIPOS>BOND
     1    46     5 1
     2    46     2 1
     3     5     6 1
     4     2     1 1
     5     6    40 1
     6     1    40 1
     7    40     3 1
     8    47    32 2
     9     3     9 1
    10    33    43 1
    11    33    34 1
    12    32    43 1
    13    32    30 1
    14    42    31 1
    15    42    30 1
    16     9    10 1
    17    43    37 1
    18    34    35 1
    19    31    25 1
    20    30    29 1
    21    29    26 1
    22    25    26 ar
    23    25    24 ar
    24    26    27 ar
    25    10    38 1
    26    35    36 1
    27    24    23 ar
    28    27    28 ar
    29    37    36 1
    30    23    28 ar
    31    23    22 1
    32    38    11 1
    33    38    39 1
    34    12    11 1
    35    12     8 1
    36    11     7 2
    37    39     4 2
    38     8    41 1
    39    22    21 3
    40    21    16 1
    41    15    16 ar
    42    15    14 ar
    43     7     4 1
    44     7    13 1
    45     4    14 1
    46    13    41 1
    47    16    17 ar
    48    14    19 ar
    49    41    48 1
    50    20    48 1
    51    17    18 ar
    52    17    49 1
    53    19    18 ar
    54    48    45 2
    55    48    44 2
    56     1    50 1
    57     1    51 1
    58     2    52 1
    59     2    53 1
    60     3    54 1
    61     3    55 1
    62     5    56 1
    63     5    57 1
    64     6    58 1
    65     6    59 1
    66     8    60 1
    67     8    61 1
    68     9    62 1
    69     9    63 1
    70    10    64 1
    71    10    65 1
    72    12    66 1
    73    12    67 1
    74    13    68 1
    75    13    69 1
    76    15    70 1
    77    18    71 1
    78    19    72 1
    79    20    73 1
    80    20    74 1
    81    20    75 1
    82    24    76 1
    83    27    77 1
    84    28    78 1
    85    29    79 1
    86    29    80 1
    87    30    81 1
    88    31    82 1
    89    31    83 1
    90    33    94 1
    91    33    84 1
    92    34    85 1
    93    34    86 1
    94    35    87 1
    95    35    88 1
    96    36    89 1
    97    36    90 1
    98    37    91 1
    99    37    92 1
   100    42    93 1
@<TRIPOS>SUBSTRUCTURE
     1 BHJ         1 TEMP              0 ****  ****    0 ROOT
