@<TRIPOS>MOLECULE
BHK
   29    29     1     0     0
SMALL
bcc


@<TRIPOS>ATOM
      1 CAH         0.1850    0.3600    0.1080 ca        1 BHK     -0.132500
      2 CAI         1.5630    0.2040    0.2510 ca        1 BHK     -0.143500
      3 CAJ         2.0760   -0.5370    1.3130 ca        1 BHK     -0.155000
      4 CAK         1.2030   -1.1240    2.2310 ca        1 BHK     -0.143500
      5 CAL        -0.1740   -0.9710    2.0920 ca        1 BHK     -0.132500
      6 CAG        -0.6970   -0.2250    1.0260 ca        1 BHK     -0.058300
      7 CAD        -2.1640   -0.0220    0.8760 c3        1 BHK     -0.022100
      8 CAB        -2.9920   -1.2590    1.2000 c3        1 BHK     -0.186700
      9 CAC        -3.4160   -1.2270    2.6950 c         1 BHK      0.903600
     10 OAN        -2.8580   -2.0520    3.4740 o         1 BHK     -0.835300
     11 OAM        -4.2990   -0.3970    3.0490 o         1 BHK     -0.835300
     12 CAA        -4.2300   -1.3040    0.3180 c3        1 BHK     -0.162400
     13 CAE        -4.9210   -2.6320    0.3650 c         1 BHK      0.555100
     14 OAO        -5.1250   -3.3130   -0.6530 o         1 BHK     -0.598100
     15 CAF        -5.3810   -3.1180    1.7160 c3        1 BHK      0.006400
     16 OAP        -6.3480   -4.1470    1.6190 oh        1 BHK     -0.609800
     17 HAH        -0.2130    0.9450   -0.7340 ha        1 BHK      0.160000
     18 HAI         2.2440    0.6680   -0.4760 ha        1 BHK      0.115000
     19 HAJ         3.1610   -0.6600    1.4270 ha        1 BHK      0.109000
     20 HAK         1.6030   -1.7110    3.0710 ha        1 BHK      0.115000
     21 HAL        -0.8730   -1.4390    2.8180 ha        1 BHK      0.160000
     22 HAD        -2.3790    0.3200   -0.1740 hc        1 BHK      0.046700
     23 HADA       -2.4860    0.8090    1.5640 hc        1 BHK      0.046700
     24 HAB        -2.3770   -2.1820    1.0260 hc        1 BHK      0.049700
     25 HAA        -4.9510   -0.5210    0.6860 hc        1 BHK      0.063700
     26 HAAA       -3.9640   -1.0710   -0.7470 hc        1 BHK      0.063700
     27 HAF        -4.4840   -3.4730    2.3000 h1        1 BHK      0.109700
     28 HAFA       -5.8660   -2.2840    2.2960 h1        1 BHK      0.109700
     29 HOAP       -6.0680   -4.7340    0.9040 ho        1 BHK      0.400000
@<TRIPOS>BOND
     1    1    2 ar  
     2    1    6 ar  
     3    1   17 1   
     4    2    3 ar  
     5    2   18 1   
     6    3    4 ar  
     7    3   19 1   
     8    4    5 ar  
     9    4   20 1   
    10    5    6 ar  
    11    5   21 1   
    12    6    7 1   
    13    7    8 1   
    14    7   22 1   
    15    7   23 1   
    16    8    9 1   
    17    8   12 1   
    18    8   24 1   
    19    9   10 1   
    20    9   11 1   
    21   12   13 1   
    22   12   25 1   
    23   12   26 1   
    24   13   14 2   
    25   13   15 1   
    26   15   16 1   
    27   15   27 1   
    28   15   28 1   
    29   16   29 1   
@<TRIPOS>SUBSTRUCTURE
     1 BHK         1 TEMP              0 ****  ****    0 ROOT
