@<TRIPOS>MOLECULE
molecule
   29    29     1     0     0
SMALL
bcc


@<TRIPOS>ATOM
      1 CAH          0.0000     0.0000     0.0000 ca         1 BHK      -0.100000
      2 CAI          1.3820     0.0000     0.0000 ca         1 BHK      -0.154000
      3 CAJ          2.0730     0.0000     1.1980 ca         1 BHK      -0.149000
      4 CAK          1.3810    -0.0000     2.3950 ca         1 BHK      -0.154000
      5 CAL         -0.0000     0.0000     2.3940 ca         1 BHK      -0.100000
      6 CAG         -0.6920    -0.0000     1.1970 ca         1 BHK      -0.057300
      7 CAD         -2.1990     0.0000     1.1960 c3         1 BHK      -0.016100
      8 CAB         -2.7090    -1.4430     1.1950 c3         1 BHK      -0.162700
      9 CAC         -2.3110    -2.1170     2.4820 c          1 BHK       0.892600
     10 OAN         -2.6530    -3.3960     2.7040 o          1 BHK      -0.837800
     11 OAM         -1.6830    -1.5080     3.3160 o          1 BHK      -0.837800
     12 CAA         -4.2340    -1.4440     1.0690 c3         1 BHK      -0.141400
     13 CAE         -4.7260    -2.8630     0.9440 c          1 BHK       0.518100
     14 OAO         -3.9390    -3.7790     0.9560 o          1 BHK      -0.387100
     15 CAF         -6.2010    -3.1390     0.8060 c3         1 BHK       0.037400
     16 OAP         -6.4140    -4.5490     0.7050 oh         1 BHK      -0.579800
     17 HAH         -0.5410    -0.0000    -0.9380 ha         1 BHK       0.151000
     18 HAI          1.9240     0.0000    -0.9380 ha         1 BHK       0.108500
     19 HAJ          3.1560    -0.0000     1.1990 ha         1 BHK       0.102000
     20 HAK          1.9220    -0.0000     3.3330 ha         1 BHK       0.108500
     21 HAL         -0.5420     0.0000     3.3320 ha         1 BHK       0.151000
     22 HAD         -2.5600     0.5100     2.0810 hc         1 BHK       0.028200
     23 HADA        -2.5590     0.5110     0.3120 hc         1 BHK       0.028200
     24 HAB         -2.2770    -1.9780     0.3580 hc         1 BHK       0.060700
     25 HAA         -4.5240    -0.8820     0.1890 hc         1 BHK       0.035700
     26 HAAA        -4.6700    -0.9870     1.9490 hc         1 BHK       0.035700
     27 HAF         -6.7230    -2.7560     1.6750 h1         1 BHK       0.019700
     28 HAFA        -6.5780    -2.6520    -0.0850 h1         1 BHK       0.019700
     29 HOAP        -7.3360    -4.7230     0.6180 ho         1 BHK       0.378000
@<TRIPOS>BOND
     1     1     2 ar
     2     1     6 ar
     3     2     3 ar
     4     3     4 ar
     5     4     5 ar
     6     5     6 ar
     7     6     7 1
     8     7     8 1
     9     8     9 1
    10     8    12 1
    11     9    10 1
    12     9    11 1
    13    12    13 1
    14    13    14 2
    15    13    15 1
    16    15    16 1
    17     1    17 1
    18     2    18 1
    19     3    19 1
    20     4    20 1
    21     5    21 1
    22     7    22 1
    23     7    23 1
    24     8    24 1
    25    12    25 1
    26    12    26 1
    27    15    27 1
    28    15    28 1
    29    16    29 1
@<TRIPOS>SUBSTRUCTURE
     1 BHK         1 TEMP              0 ****  ****    0 ROOT
