@<TRIPOS>MOLECULE
molecule
   21    20     1     0     0
SMALL
bcc


@<TRIPOS>ATOM
      1 Br1          0.0000     0.0000     0.0000 br         1 BHL      -0.186400
      2 C1           1.9650     0.0000     0.0000 c3         1 BHL       0.005000
      3 C2           2.4760     0.0000     1.4420 c3         1 BHL      -0.084400
      4 C3           4.0060    -0.0000     1.4410 c3         1 BHL      -0.081400
      5 C4           4.5160    -0.0000     2.8830 c3         1 BHL      -0.080400
      6 C5           6.0460    -0.0000     2.8830 c3         1 BHL      -0.081400
      7 C6           6.5570    -0.0000     4.3240 c3         1 BHL       0.141400
      8 O7           7.9860    -0.0000     4.3240 oh         1 BHL      -0.611800
      9 H11          2.3260    -0.8840    -0.5110 h1         1 BHL       0.070700
     10 H12          2.3260     0.8840    -0.5110 h1         1 BHL       0.070700
     11 H21          2.1150    -0.8840     1.9520 hc         1 BHL       0.055700
     12 H22          2.1150     0.8840     1.9520 hc         1 BHL       0.055700
     13 H31          4.3670     0.8840     0.9310 hc         1 BHL       0.045700
     14 H32          4.3670    -0.8840     0.9310 hc         1 BHL       0.045700
     15 H41          4.1550    -0.8840     3.3940 hc         1 BHL       0.043700
     16 H42          4.1550     0.8840     3.3940 hc         1 BHL       0.043700
     17 H51          6.4070    -0.8840     2.3720 hc         1 BHL       0.054700
     18 H52          6.4070     0.8840     2.3720 hc         1 BHL       0.054700
     19 H61          6.1960    -0.8840     4.8350 h1         1 BHL       0.018700
     20 H62          6.1960     0.8840     4.8350 h1         1 BHL       0.018700
     21 HO7          8.3010    -0.0000     5.2130 ho         1 BHL       0.402000
@<TRIPOS>BOND
     1     1     2 1
     2     2     3 1
     3     2     9 1
     4     2    10 1
     5     3     4 1
     6     3    11 1
     7     3    12 1
     8     4     5 1
     9     4    13 1
    10     4    14 1
    11     5     6 1
    12     5    15 1
    13     5    16 1
    14     6     7 1
    15     6    17 1
    16     6    18 1
    17     7     8 1
    18     7    19 1
    19     7    20 1
    20     8    21 1
@<TRIPOS>SUBSTRUCTURE
     1 BHL         1 TEMP              0 ****  ****    0 ROOT
