@<TRIPOS>MOLECULE
BHL
   21    20     1     0     0
SMALL
bcc


@<TRIPOS>ATOM
      1 BR1         0.0460   -0.0000   -0.0920 br        1 BHL     -0.178400
      2 C1          1.9700   -0.0000    0.0260 c3        1 BHL     -0.009000
      3 C2          2.4790   -0.0000    1.4450 c3        1 BHL     -0.081400
      4 C3          3.9950    0.0000    1.4610 c3        1 BHL     -0.080400
      5 C4          4.5220    0.0000    2.8800 c3        1 BHL     -0.078400
      6 C5          6.0340    0.0000    2.8970 c3        1 BHL     -0.084400
      7 C6          6.5530    0.0000    4.3250 c3        1 BHL      0.132400
      8 O7          7.9700   -0.0000    4.2520 oh        1 BHL     -0.601800
      9 H11         2.3180    0.9080   -0.5190 h1        1 BHL      0.072700
     10 H12         2.3180   -0.9080   -0.5190 h1        1 BHL      0.072700
     11 H21         2.1000   -0.9040    1.9920 hc        1 BHL      0.055700
     12 H22         2.1000    0.9040    1.9920 hc        1 BHL      0.055700
     13 H31         4.3780    0.9030    0.9170 hc        1 BHL      0.043700
     14 H32         4.3780   -0.9030    0.9170 hc        1 BHL      0.043700
     15 H41         4.1380   -0.9030    3.4240 hc        1 BHL      0.041700
     16 H42         4.1380    0.9030    3.4240 hc        1 BHL      0.041700
     17 H51         6.4290    0.9020    2.3610 hc        1 BHL      0.055700
     18 H52         6.4290   -0.9020    2.3610 hc        1 BHL      0.055700
     19 H61         6.1980   -0.9130    4.8740 h1        1 BHL      0.020700
     20 H62         6.1980    0.9130    4.8740 h1        1 BHL      0.020700
     21 HO7         8.2920   -0.0000    5.1600 ho        1 BHL      0.400000
@<TRIPOS>BOND
     1    1    2 1   
     2    2    3 1   
     3    2    9 1   
     4    2   10 1   
     5    3    4 1   
     6    3   11 1   
     7    3   12 1   
     8    4    5 1   
     9    4   13 1   
    10    4   14 1   
    11    5    6 1   
    12    5   15 1   
    13    5   16 1   
    14    6    7 1   
    15    6   17 1   
    16    6   18 1   
    17    7    8 1   
    18    7   19 1   
    19    7   20 1   
    20    8   21 1   
@<TRIPOS>SUBSTRUCTURE
     1 BHL         1 TEMP              0 ****  ****    0 ROOT
