@<TRIPOS>MOLECULE
BHM
   31    31     1     0     0
SMALL
bcc


@<TRIPOS>ATOM
      1 BrAI         0.0000     0.0000     0.0000 br         1 BHM      -0.224400
      2 C13          1.9660     0.0000     0.0000 c3         1 BHM       0.128000
      3 C11          2.4760     0.0000     1.4420 c3         1 BHM       0.084800
      4 O11          1.9070     1.1030     2.1490 oh         1 BHM      -0.600800
      5 C12          2.0720    -1.3080     2.1260 c3         1 BHM      -0.033100
      6 C10          3.9780     0.1240     1.4430 c          1 BHM       0.579100
      7 O10          4.6180    -0.2410     0.4800 o          1 BHM      -0.627100
      8 N09          4.6110     0.6390     2.5160 ns         1 BHM      -0.015100
      9 C06          6.0090     0.6490     2.5660 ca         1 BHM      -0.038400
     10 C05          6.6760     1.6900     3.1980 ca         1 BHM      -0.100000
     11 C01          6.7340    -0.3800     1.9780 ca         1 BHM      -0.103000
     12 C02          8.1140    -0.3670     2.0280 ca         1 BHM       0.010000
     13 C03          8.7750     0.6680     2.6640 ca         1 BHM      -0.415200
     14 N08         10.2530     0.6780     2.7170 no         1 BHM       1.040200
     15 O02         10.8880    -0.2250     2.2010 o          1 BHM      -0.437500
     16 O01         10.8370     1.5900     3.2770 o          1 BHM      -0.437500
     17 C04          8.0550     1.6940     3.2510 ca         1 BHM      -0.100300
     18 C07          8.7800     2.8190     3.9430 c3         1 BHM       0.652200
     19 F01          7.8480     3.7290     4.4540 f          1 BHM      -0.199300
     20 F02          9.5510     2.3040     4.9910 f          1 BHM      -0.199300
     21 F03          9.6130     3.4710     3.0270 f          1 BHM      -0.199300
     22 H131         2.3270     0.8850    -0.5110 h1         1 BHM       0.055700
     23 H132         2.3270    -0.8840    -0.5110 h1         1 BHM       0.055700
     24 H11          0.9810     1.1430     1.9770 ho         1 BHM       0.425000
     25 H121         1.0050    -1.4600     2.0140 hc         1 BHM       0.025700
     26 H122         2.6040    -2.1340     1.6700 hc         1 BHM       0.025700
     27 H123         2.3200    -1.2560     3.1790 hc         1 BHM       0.025700
     28 H09          4.0810     1.0150     3.2770 hn         1 BHM       0.194500
     29 H05          6.1130     2.4930     3.6580 ha         1 BHM       0.137000
     30 H01          6.2170    -1.1910     1.4790 ha         1 BHM       0.151000
     31 H02          8.6790    -1.1690     1.5700 ha         1 BHM       0.140000
@<TRIPOS>BOND
     1     1     2 1   
     2     2     3 1   
     3     2    22 1   
     4     2    23 1   
     5     3     4 1   
     6     3     5 1   
     7     3     6 1   
     8     4    24 1   
     9     5    25 1   
    10     5    26 1   
    11     5    27 1   
    12     6     7 2   
    13     6     8 1   
    14     8     9 1   
    15     8    28 1   
    16     9    10 ar  
    17     9    11 ar  
    18    10    17 ar  
    19    10    29 1   
    20    11    12 ar  
    21    11    30 1   
    22    12    13 ar  
    23    12    31 1   
    24    13    14 1   
    25    13    17 ar  
    26    14    15 1   
    27    14    16 1   
    28    17    18 1   
    29    18    19 1   
    30    18    20 1   
    31    18    21 1   
@<TRIPOS>SUBSTRUCTURE
     1 BHM         1 TEMP              0 ****  ****    0 ROOT
