@<TRIPOS>MOLECULE
molecule
   50    51     1     0     0
SMALL
bcc


@<TRIPOS>ATOM
      1 C1           0.0000     0.0000     0.0000 ca         1 BHN      -0.067300
      2 C2           1.3810     0.0000     0.0000 ca         1 BHN      -0.101500
      3 C3           2.0730     0.0000     1.1970 ca         1 BHN      -0.180500
      4 C4           1.3850     0.0020     2.3960 ca         1 BHN      -0.127000
      5 C5           0.0030     0.0020     2.4010 ca         1 BHN      -0.230000
      6 C6          -0.6930     0.0010     1.2020 ca         1 BHN       0.150600
      7 O6          -2.0520     0.0020     1.2040 oh         1 BHN      -0.429100
      8 C7          -0.7540     0.0060    -1.3060 c3         1 BHN       0.207600
      9 N8          -1.1160     1.3850    -1.6570 n3         1 BHN      -0.709600
     10 C9          -1.4870     1.4880    -3.0740 c3         1 BHN       0.152300
     11 C10         -1.4720     2.9580    -3.5000 c3         1 BHN       0.152300
     12 N11         -1.8800     3.0640    -4.9070 n3         1 BHN      -0.709600
     13 C12         -1.6520     4.4220    -5.4200 c3         1 BHN       0.207600
     14 C13         -0.1710     4.6750    -5.5290 ca         1 BHN      -0.067300
     15 C14          0.4580     5.5020    -4.6180 ca         1 BHN      -0.101500
     16 C15          1.8170     5.7360    -4.7180 ca         1 BHN      -0.180500
     17 C16          2.5510     5.1420    -5.7280 ca         1 BHN      -0.127000
     18 C17          1.9260     4.3140    -6.6420 ca         1 BHN      -0.230000
     19 C18          0.5640     4.0740    -6.5400 ca         1 BHN       0.150600
     20 O18         -0.0510     3.2550    -7.4350 oh         1 BHN      -0.429100
     21 C19         -2.1950     1.8820    -0.7930 c3         1 BHN       0.046300
     22 C20         -3.4440     1.0740    -1.0340 c          1 BHN       0.884600
     23 O20         -3.4150     0.1240    -1.7800 o          1 BHN      -0.859800
     24 C21         -3.2830     2.6650    -5.0800 c3         1 BHN       0.046300
     25 O21         -4.5900     1.4090    -0.4200 o          1 BHN      -0.859800
     26 C22         -3.5540     2.3990    -6.5380 c          1 BHN       0.884600
     27 O22         -2.6460     2.4290    -7.3360 o          1 BHN      -0.859800
     28 O23         -4.8020     2.1290    -6.9510 o          1 BHN      -0.859800
     29 H2           1.9220    -0.0010    -0.9380 ha         1 BHN       0.130500
     30 H3           3.1570     0.0000     1.1940 ha         1 BHN       0.105000
     31 H4           1.9300     0.0020     3.3330 ha         1 BHN       0.100500
     32 H5          -0.5360     0.0030     3.3410 ha         1 BHN       0.113000
     33 HO6         -2.3660    -0.5970     1.8610 ho         1 BHN       0.393500
     34 H7          -0.1300    -0.4130    -2.0850 h1         1 BHN       0.052700
     35 H7A         -1.6540    -0.5900    -1.2050 h1         1 BHN       0.052700
     36 H9          -0.7780     0.9310    -3.6740 h1         1 BHN       0.042450
     37 H9A         -2.4810     1.0810    -3.2180 h1         1 BHN       0.042450
     38 H10         -2.1610     3.5200    -2.8810 h1         1 BHN       0.042450
     39 H10A        -0.4720     3.3570    -3.3820 h1         1 BHN       0.042450
     40 H12         -2.0930     5.1430    -4.7420 h1         1 BHN       0.052700
     41 H12A        -2.1080     4.5190    -6.3970 h1         1 BHN       0.052700
     42 H14         -0.1140     5.9690    -3.8250 ha         1 BHN       0.130500
     43 H15          2.3090     6.3850    -4.0030 ha         1 BHN       0.105000
     44 H16          3.6150     5.3290    -5.8050 ha         1 BHN       0.100500
     45 H17          2.5020     3.8470    -7.4320 ha         1 BHN       0.113000
     46 HO18         0.3840     3.3180    -8.2690 ho         1 BHN       0.393500
     47 H19         -1.8990     1.7890     0.2450 h1         1 BHN       0.044950
     48 H19A        -2.3890     2.9240    -1.0200 h1         1 BHN       0.044950
     49 H21         -3.4750     1.7660    -4.5070 h1         1 BHN       0.044950
     50 H21A        -3.9300     3.4600    -4.7310 h1         1 BHN       0.044950
@<TRIPOS>BOND
     1     1     2 ar
     2     1     6 ar
     3     1     8 1
     4     2     3 ar
     5     3     4 ar
     6     4     5 ar
     7     5     6 ar
     8     6     7 1
     9     8     9 1
    10     9    10 1
    11     9    21 1
    12    10    11 1
    13    11    12 1
    14    12    13 1
    15    12    24 1
    16    13    14 1
    17    14    15 ar
    18    14    19 ar
    19    15    16 ar
    20    16    17 ar
    21    17    18 ar
    22    18    19 ar
    23    19    20 1
    24    21    22 1
    25    22    23 1
    26    22    25 1
    27    24    26 1
    28    26    27 1
    29    26    28 1
    30     2    29 1
    31     3    30 1
    32     4    31 1
    33     5    32 1
    34     7    33 1
    35     8    34 1
    36     8    35 1
    37    10    36 1
    38    10    37 1
    39    11    38 1
    40    11    39 1
    41    13    40 1
    42    13    41 1
    43    15    42 1
    44    16    43 1
    45    17    44 1
    46    18    45 1
    47    20    46 1
    48    21    47 1
    49    21    48 1
    50    24    49 1
    51    24    50 1
@<TRIPOS>SUBSTRUCTURE
     1 BHN         1 TEMP              0 ****  ****    0 ROOT
