@<TRIPOS>MOLECULE
molecule
   17    17     1     0     0
SMALL
bcc


@<TRIPOS>ATOM
      1 C1           0.0000     0.0000     0.0000 ca         1 BHO      -0.139600
      2 C2           1.3960     0.0000     0.0000 ca         1 BHO      -0.086500
      3 C3           2.0830     0.0000     1.1960 ca         1 BHO      -0.136000
      4 C4           1.3910     0.0000     2.3940 ca         1 BHO      -0.104000
      5 C5           0.0080    -0.0010     2.4010 ca         1 BHO      -0.136000
      6 C6          -0.6910     0.0040     1.2120 ca         1 BHO      -0.086500
      7 C           -0.7410     0.0000    -1.2780 c          1 BHO       0.687700
      8 O1          -0.1360     0.0000    -2.3320 o          1 BHO      -0.574100
      9 N           -2.0890     0.0000    -1.2750 ns         1 BHO      -0.471400
     10 O2          -2.8000     0.0000    -2.5000 oh         1 BHO      -0.360100
     11 H2           1.9390    -0.0020    -0.9380 ha         1 BHO       0.140500
     12 H3           3.1660     0.0000     1.1970 ha         1 BHO       0.136500
     13 H4           1.9350    -0.0020     3.3310 ha         1 BHO       0.134000
     14 H5          -0.5280     0.0010     3.3420 ha         1 BHO       0.136500
     15 H6          -1.7740     0.0040     1.2200 ha         1 BHO       0.140500
     16 HN          -2.5870    -0.0010    -0.4070 hn         1 BHO       0.320500
     17 HO2         -3.7270     0.0010    -2.3250 ho         1 BHO       0.398000
@<TRIPOS>BOND
     1     1     2 ar
     2     1     6 ar
     3     1     7 1
     4     2     3 ar
     5     2    11 1
     6     3     4 ar
     7     3    12 1
     8     4     5 ar
     9     4    13 1
    10     5     6 ar
    11     5    14 1
    12     6    15 1
    13     7     8 2
    14     7     9 1
    15     9    10 1
    16     9    16 1
    17    10    17 1
@<TRIPOS>SUBSTRUCTURE
     1 BHO         1 TEMP              0 ****  ****    0 ROOT
