@<TRIPOS>MOLECULE
molecule
   72    74     1     0     0
SMALL
bcc


@<TRIPOS>ATOM
      1 C9           0.0000     0.0000     0.0000 c3         1 BHP      -0.081400
      2 C8           1.5300     0.0000     0.0000 c3         1 BHP      -0.077400
      3 C7           2.0400     0.0000     1.4430 c3         1 BHP      -0.039100
      4 C6           3.5460     0.0000     1.4430 ca         1 BHP      -0.074300
      5 C1           4.2370     1.1970     1.4440 ca         1 BHP      -0.125500
      6 C5           4.2370    -1.1970     1.4490 ca         1 BHP      -0.125500
      7 C2           5.6190     1.1970     1.4440 ca         1 BHP      -0.128500
      8 C4           5.6190    -1.1980     1.4460 ca         1 BHP      -0.128500
      9 C3           6.3100    -0.0000     1.4450 ca         1 BHP      -0.138000
     10 C13         -4.0560    -0.0010    -2.8850 c          1 BHP       0.660100
     11 O1          -4.6630    -0.0000    -1.8350 o          1 BHP      -0.600100
     12 C12         -2.5500    -0.0010    -2.8850 c3         1 BHP      -0.158400
     13 C11         -2.0400    -0.0000    -1.4420 c3         1 BHP      -0.066400
     14 C10         -0.5110    -0.0010    -1.4410 c3         1 BHP      -0.084400
     15 N           -4.7300    -0.0010    -4.0520 ns         1 BHP      -0.574900
     16 C14         -6.1940    -0.0000    -4.0530 c3         1 BHP       0.108700
     17 C15         -6.7060    -0.7220    -5.3010 c3         1 BHP      -0.050100
     18 C16         -6.2030    -2.1430    -5.3010 ca         1 BHP      -0.096300
     19 C17         -6.9510    -3.1390    -4.7030 ca         1 BHP      -0.090000
     20 C18         -6.4920    -4.4420    -4.7010 ca         1 BHP      -0.189000
     21 C21         -4.9980    -2.4490    -5.9050 ca         1 BHP      -0.090000
     22 C20         -4.5320    -3.7480    -5.9010 ca         1 BHP      -0.189000
     23 C19         -5.2810    -4.7500    -5.3010 ca         1 BHP       0.101100
     24 O2          -4.8280    -6.0310    -5.3010 os         1 BHP      -0.297900
     25 C29         -6.7050     1.4420    -4.0520 c3         1 BHP      -0.077400
     26 C30         -6.1950     2.1630    -2.8030 c3         1 BHP      -0.178400
     27 C31         -6.6980     3.5840    -2.8030 c          1 BHP       0.890600
     28 O3          -7.3920     3.9790    -3.7100 o          1 BHP      -0.859800
     29 O4T         -6.3740     4.4110    -1.7980 o          1 BHP      -0.859800
     30 C22         -3.5730    -6.0260    -5.9840 c3         1 BHP       0.165700
     31 C23         -3.0140    -7.4250    -6.0190 ca         1 BHP      -0.092300
     32 C24         -3.3220    -8.2660    -7.0720 ca         1 BHP      -0.105000
     33 C28         -2.1880    -7.8650    -5.0020 ca         1 BHP      -0.105000
     34 C25         -2.8090    -9.5500    -7.1030 ca         1 BHP      -0.134000
     35 C27         -1.6790    -9.1500    -5.0310 ca         1 BHP      -0.134000
     36 C26         -1.9870    -9.9920    -6.0840 ca         1 BHP      -0.124000
     37 H91         -0.3610    -0.8840     0.5110 hc         1 BHP       0.045200
     38 H92         -0.3610     0.8850     0.5100 hc         1 BHP       0.045200
     39 H81          1.8910    -0.8850    -0.5110 hc         1 BHP       0.042200
     40 H82          1.8910     0.8850    -0.5110 hc         1 BHP       0.042200
     41 H71          1.6780     0.8840     1.9540 hc         1 BHP       0.049700
     42 H72          1.6790    -0.8850     1.9540 hc         1 BHP       0.049700
     43 H1           3.6960     2.1350     1.4440 ha         1 BHP       0.131000
     44 H5           3.6950    -2.1350     1.4500 ha         1 BHP       0.131000
     45 H2           6.1610     2.1350     1.4440 ha         1 BHP       0.125000
     46 H4           6.1610    -2.1360     1.4480 ha         1 BHP       0.125000
     47 H3           7.3930    -0.0000     1.4430 ha         1 BHP       0.123000
     48 H121        -2.1890    -0.8850    -3.3950 hc         1 BHP       0.051200
     49 H122        -2.1890     0.8840    -3.3960 hc         1 BHP       0.051200
     50 H111        -2.4010     0.8840    -0.9320 hc         1 BHP       0.062700
     51 H112        -2.4010    -0.8850    -0.9310 hc         1 BHP       0.062700
     52 H101        -0.1500    -0.8860    -1.9520 hc         1 BHP       0.034700
     53 H102        -0.1490     0.8830    -1.9530 hc         1 BHP       0.034700
     54 H           -4.2290     0.0360    -4.9180 hn         1 BHP       0.298500
     55 H14         -6.5560    -0.5110    -3.1680 h1         1 BHP       0.078700
     56 H151        -6.3450    -0.2120    -6.1860 hc         1 BHP       0.053700
     57 H152        -7.7890    -0.7220    -5.3000 hc         1 BHP       0.053700
     58 H17         -7.9130    -2.9040    -4.2650 ha         1 BHP       0.132500
     59 H18         -7.0970    -5.2290    -4.2680 ha         1 BHP       0.135000
     60 H21         -4.4440    -1.6770    -6.4260 ha         1 BHP       0.132500
     61 H20         -3.6080    -3.9950    -6.4100 ha         1 BHP       0.135000
     62 H291        -7.7890     1.4420    -4.0510 hc         1 BHP       0.048200
     63 H292        -6.3450     1.9540    -4.9360 hc         1 BHP       0.048200
     64 H301        -5.1120     2.1630    -2.8040 hc         1 BHP       0.040200
     65 H302        -6.5560     1.6520    -1.9190 hc         1 BHP       0.040200
     66 H221        -2.8820    -5.3740    -5.4640 h1         1 BHP       0.047200
     67 H222        -3.7150    -5.6680    -6.9960 h1         1 BHP       0.047200
     68 H24         -3.9660    -7.9210    -7.8710 ha         1 BHP       0.135000
     69 H28         -1.9470    -7.2060    -4.1770 ha         1 BHP       0.135000
     70 H25         -3.0510   -10.2090    -7.9280 ha         1 BHP       0.128000
     71 H27         -1.0340    -9.4950    -4.2330 ha         1 BHP       0.128000
     72 H26         -1.5870   -10.9980    -6.1090 ha         1 BHP       0.125000
@<TRIPOS>BOND
     1     1     2 1
     2     1    14 1
     3     1    37 1
     4     1    38 1
     5     2     3 1
     6     2    39 1
     7     2    40 1
     8     3     4 1
     9     3    41 1
    10     3    42 1
    11     4     5 ar
    12     4     6 ar
    13     5     7 ar
    14     5    43 1
    15     6     8 ar
    16     6    44 1
    17     7     9 ar
    18     7    45 1
    19     8     9 ar
    20     8    46 1
    21     9    47 1
    22    10    11 2
    23    10    12 1
    24    10    15 1
    25    12    13 1
    26    12    48 1
    27    12    49 1
    28    13    14 1
    29    13    50 1
    30    13    51 1
    31    14    52 1
    32    14    53 1
    33    15    16 1
    34    15    54 1
    35    16    17 1
    36    16    25 1
    37    16    55 1
    38    17    18 1
    39    17    56 1
    40    17    57 1
    41    18    19 ar
    42    18    21 ar
    43    19    20 ar
    44    19    58 1
    45    20    23 ar
    46    20    59 1
    47    21    22 ar
    48    21    60 1
    49    22    23 ar
    50    22    61 1
    51    23    24 1
    52    24    30 1
    53    25    26 1
    54    25    62 1
    55    25    63 1
    56    26    27 1
    57    26    64 1
    58    26    65 1
    59    27    28 1
    60    27    29 1
    61    30    31 1
    62    30    66 1
    63    30    67 1
    64    31    32 ar
    65    31    33 ar
    66    32    34 ar
    67    32    68 1
    68    33    35 ar
    69    33    69 1
    70    34    36 ar
    71    34    70 1
    72    35    36 ar
    73    35    71 1
    74    36    72 1
@<TRIPOS>SUBSTRUCTURE
     1 BHP         1 TEMP              0 ****  ****    0 ROOT
