@<TRIPOS>MOLECULE
BHQ
   38    38     1     0     0
SMALL
bcc


@<TRIPOS>ATOM
      1 O1         -0.0200   -0.0140    0.0400 oh        1 BHQ     -0.502100
      2 O2          5.5080   -0.0190   -0.0370 oh        1 BHQ     -0.502100
      3 C1          1.3610   -0.0150    0.0220 ca        1 BHQ      0.094100
      4 C2          2.0430   -0.0170    1.2580 ca        1 BHQ     -0.049300
      5 C3          3.4380   -0.0180    1.2010 ca        1 BHQ     -0.183000
      6 C4          4.1260   -0.0180   -0.0210 ca        1 BHQ      0.094100
      7 C5          3.4440   -0.0170   -1.2560 ca        1 BHQ     -0.049300
      8 C6          2.0500   -0.0150   -1.1990 ca        1 BHQ     -0.183000
      9 C7          1.3080   -0.0170    2.5720 c3        1 BHQ      0.004300
     10 C8          2.2560   -0.0180    3.7680 c3        1 BHQ     -0.088100
     11 C9          0.4340    1.2310    2.6730 c3        1 BHQ     -0.088100
     12 C10         0.4310   -1.2630    2.6720 c3        1 BHQ     -0.088100
     13 C11         4.1800   -0.0170   -2.5700 c3        1 BHQ      0.004300
     14 C12         3.2310   -0.0150   -3.7650 c3        1 BHQ     -0.088100
     15 C13         5.0540   -1.2640   -2.6710 c3        1 BHQ     -0.088100
     16 C14         5.0560    1.2300   -2.6700 c3        1 BHQ     -0.088100
     17 HO1        -0.3290   -0.0140   -0.8780 ho        1 BHQ      0.414000
     18 HO2         5.8170   -0.0190    0.8800 ho        1 BHQ      0.414000
     19 H3          4.0330   -0.0190    2.1280 ha        1 BHQ      0.137000
     20 H6          1.4550   -0.0150   -2.1260 ha        1 BHQ      0.137000
     21 H81         2.9030    0.8920    3.7620 hc        1 BHQ      0.038811
     22 H82         2.9010   -0.9290    3.7610 hc        1 BHQ      0.038811
     23 H83         1.6620   -0.0180    4.7140 hc        1 BHQ      0.038811
     24 H91        -0.3270    1.2450    1.8560 hc        1 BHQ      0.038811
     25 H92        -0.0980    1.2410    3.6550 hc        1 BHQ      0.038811
     26 H93         1.0620    2.1500    2.5970 hc        1 BHQ      0.038811
     27 H101       -0.1010   -1.2730    3.6540 hc        1 BHQ      0.038811
     28 H102       -0.3290   -1.2740    1.8550 hc        1 BHQ      0.038811
     29 H103        1.0580   -2.1830    2.5940 hc        1 BHQ      0.038811
     30 H121        3.8250   -0.0160   -4.7120 hc        1 BHQ      0.038811
     31 H122        2.5860    0.8950   -3.7590 hc        1 BHQ      0.038811
     32 H123        2.5850   -0.9260   -3.7600 hc        1 BHQ      0.038811
     33 H131        5.5860   -1.2740   -3.6530 hc        1 BHQ      0.038811
     34 H132        4.4260   -2.1830   -2.5940 hc        1 BHQ      0.038811
     35 H133        5.8150   -1.2780   -1.8540 hc        1 BHQ      0.038811
     36 H141        4.4290    2.1500   -2.5930 hc        1 BHQ      0.038811
     37 H142        5.8160    1.2420   -1.8530 hc        1 BHQ      0.038811
     38 H143        5.5880    1.2400   -3.6520 hc        1 BHQ      0.038811
@<TRIPOS>BOND
     1    1    3 1   
     2    1   17 1   
     3    2    6 1   
     4    2   18 1   
     5    3    4 ar  
     6    3    8 ar  
     7    4    5 ar  
     8    4    9 1   
     9    5    6 ar  
    10    5   19 1   
    11    6    7 ar  
    12    7    8 ar  
    13    7   13 1   
    14    8   20 1   
    15    9   10 1   
    16    9   11 1   
    17    9   12 1   
    18   10   21 1   
    19   10   22 1   
    20   10   23 1   
    21   11   24 1   
    22   11   25 1   
    23   11   26 1   
    24   12   27 1   
    25   12   28 1   
    26   12   29 1   
    27   13   14 1   
    28   13   15 1   
    29   13   16 1   
    30   14   30 1   
    31   14   31 1   
    32   14   32 1   
    33   15   33 1   
    34   15   34 1   
    35   15   35 1   
    36   16   36 1   
    37   16   37 1   
    38   16   38 1   
@<TRIPOS>SUBSTRUCTURE
     1 BHQ         1 TEMP              0 ****  ****    0 ROOT
