@<TRIPOS>MOLECULE
molecule
   38    38     1     0     0
SMALL
bcc


@<TRIPOS>ATOM
      1 O1           0.0000     0.0000     0.0000 oh         1 BHQ      -0.498100
      2 O2           5.4880    -0.0040     0.0020 oh         1 BHQ      -0.498100
      3 C1           1.3600     0.0000     0.0000 ca         1 BHQ       0.106600
      4 C2           2.0520     0.0000     1.2020 ca         1 BHQ      -0.063800
      5 C3           3.4340    -0.0000     1.2020 ca         1 BHQ      -0.187500
      6 C4           4.1280    -0.0050     0.0020 ca         1 BHQ       0.106600
      7 C5           3.4360    -0.0000    -1.1990 ca         1 BHQ      -0.063800
      8 C6           2.0540    -0.0000    -1.2000 ca         1 BHQ      -0.187500
      9 C7           1.2980     0.0000     2.5060 c3         1 BHQ      -0.011700
     10 C8           2.2920    -0.0000     3.6700 c3         1 BHQ      -0.082100
     11 C9           0.4180     1.2500     2.5870 c3         1 BHQ      -0.082100
     12 C10          0.4180    -1.2490     2.5870 c3         1 BHQ      -0.082100
     13 C11          4.1890    -0.0000    -2.5040 c3         1 BHQ      -0.011700
     14 C12          3.1960    -0.0010    -3.6680 c3         1 BHQ      -0.082100
     15 C13          5.0690    -1.2490    -2.5840 c3         1 BHQ      -0.082100
     16 C14          5.0690     1.2490    -2.5850 c3         1 BHQ      -0.082100
     17 HO1         -0.3140    -0.0210    -0.8890 ho         1 BHQ       0.416000
     18 HO2          5.8020    -0.1260     0.8830 ho         1 BHQ       0.416000
     19 H3           3.9750    -0.0000     2.1410 ha         1 BHQ       0.142000
     20 H6           1.5130     0.0040    -2.1390 ha         1 BHQ       0.142000
     21 H81          2.9140    -0.8850     3.6140 hc         1 BHQ       0.037978
     22 H82          2.9150     0.8840     3.6130 hc         1 BHQ       0.037978
     23 H83          1.7490     0.0000     4.6080 hc         1 BHQ       0.037978
     24 H91          0.0840     1.3910     3.6080 hc         1 BHQ       0.037978
     25 H92          0.9900     2.1140     2.2710 hc         1 BHQ       0.037978
     26 H93         -0.4410     1.1280     1.9390 hc         1 BHQ       0.037978
     27 H101         0.9880    -2.1140     2.2680 hc         1 BHQ       0.037978
     28 H102         0.0870    -1.3930     3.6080 hc         1 BHQ       0.037978
     29 H103        -0.4430    -1.1260     1.9420 hc         1 BHQ       0.037978
     30 H121         2.5740    -0.8860    -3.6110 hc         1 BHQ       0.037978
     31 H122         3.7380    -0.0010    -4.6060 hc         1 BHQ       0.037978
     32 H123         2.5720     0.8830    -3.6110 hc         1 BHQ       0.037978
     33 H131         5.9390    -1.1190    -1.9510 hc         1 BHQ       0.037978
     34 H132         5.3880    -1.4000    -3.6090 hc         1 BHQ       0.037978
     35 H133         4.5040    -2.1110    -2.2510 hc         1 BHQ       0.037978
     36 H141         5.4150     1.3820    -3.6030 hc         1 BHQ       0.037978
     37 H142         5.9200     1.1350    -1.9260 hc         1 BHQ       0.037978
     38 H143         4.4930     2.1160    -2.2840 hc         1 BHQ       0.037978
@<TRIPOS>BOND
     1     1     3 1
     2     1    17 1
     3     2     6 1
     4     2    18 1
     5     3     4 ar
     6     3     8 ar
     7     4     5 ar
     8     4     9 1
     9     5     6 ar
    10     5    19 1
    11     6     7 ar
    12     7     8 ar
    13     7    13 1
    14     8    20 1
    15     9    10 1
    16     9    11 1
    17     9    12 1
    18    10    21 1
    19    10    22 1
    20    10    23 1
    21    11    24 1
    22    11    25 1
    23    11    26 1
    24    12    27 1
    25    12    28 1
    26    12    29 1
    27    13    14 1
    28    13    15 1
    29    13    16 1
    30    14    30 1
    31    14    31 1
    32    14    32 1
    33    15    33 1
    34    15    34 1
    35    15    35 1
    36    16    36 1
    37    16    37 1
    38    16    38 1
@<TRIPOS>SUBSTRUCTURE
     1 BHQ         1 TEMP              0 ****  ****    0 ROOT
