@<TRIPOS>MOLECULE
molecule
   51    52     1     0     0
SMALL
bcc


@<TRIPOS>ATOM
      1 C1           0.0000     0.0000     0.0000 ca         1 BHR      -0.045300
      2 C2           1.3830     0.0000     0.0000 ca         1 BHR      -0.116000
      3 C3           2.0770     0.0000     1.1950 ca         1 BHR      -0.153000
      4 C4           1.3930    -0.0010     2.3960 ca         1 BHR      -0.184000
      5 C5           0.0060    -0.0030     2.4030 ca         1 BHR       0.026100
      6 O5          -0.6690    -0.0040     3.5840 oh         1 BHR      -0.510100
      7 C6          -0.6930    -0.0020     1.2000 ca         1 BHR       0.119100
      8 O6          -2.0530    -0.0020     1.2030 oh         1 BHR      -0.444100
      9 C7          -0.7540     0.0060    -1.3050 c3         1 BHR       0.194100
     10 N8          -1.1150     1.3870    -1.6540 n3         1 BHR      -0.727600
     11 C9          -1.4870     1.4920    -3.0710 c3         1 BHR       0.148800
     12 C10         -1.4730     2.9620    -3.4950 c3         1 BHR       0.154800
     13 N11         -1.8820     3.0690    -4.9020 n3         1 BHR      -0.690600
     14 C12         -1.6550     4.4280    -5.4130 c3         1 BHR       0.221100
     15 C13         -0.1730     4.6820    -5.5210 ca         1 BHR      -0.072300
     16 C14          0.4540     5.5100    -4.6100 ca         1 BHR      -0.103000
     17 C15          1.8130     5.7450    -4.7080 ca         1 BHR      -0.184000
     18 C16          2.5480     5.1520    -5.7170 ca         1 BHR      -0.121000
     19 C17          1.9260     4.3220    -6.6310 ca         1 BHR      -0.241000
     20 C18          0.5640     4.0820    -6.5320 ca         1 BHR       0.165100
     21 O18         -0.0500     3.2620    -7.4260 oh         1 BHR      -0.409100
     22 C19         -2.1940     1.8830    -0.7880 c3         1 BHR       0.040800
     23 C20         -3.4430     1.0720    -1.0270 c          1 BHR       0.878600
     24 O20         -3.4130     0.1230    -1.7740 o          1 BHR      -0.859300
     25 C21         -3.2840     2.6700    -5.0750 c3         1 BHR       0.049800
     26 O21         -4.5880     1.4060    -0.4110 o          1 BHR      -0.859300
     27 C22         -3.5550     2.4050    -6.5330 c          1 BHR       0.890600
     28 O22         -2.6480     2.4350    -7.3310 o          1 BHR      -0.859800
     29 O23         -4.8040     2.1360    -6.9460 o          1 BHR      -0.859800
     30 H2           1.9230     0.0010    -0.9390 ha         1 BHR       0.135000
     31 H3           3.1600     0.0010     1.1910 ha         1 BHR       0.108000
     32 H4           1.9390    -0.0010     3.3310 ha         1 BHR       0.110000
     33 HO5         -0.4550    -0.7850     4.0670 ho         1 BHR       0.392000
     34 HO6         -2.3660    -0.7220     1.7240 ho         1 BHR       0.404000
     35 H7          -0.1290    -0.4110    -2.0850 h1         1 BHR       0.065200
     36 H7A         -1.6530    -0.5890    -1.2060 h1         1 BHR       0.065200
     37 H9          -2.4810     1.0840    -3.2150 h1         1 BHR       0.067200
     38 H9A         -0.7780     0.9360    -3.6730 h1         1 BHR       0.067200
     39 H10         -0.4730     3.3620    -3.3780 h1         1 BHR       0.018700
     40 H10A        -2.1620     3.5230    -2.8750 h1         1 BHR       0.018700
     41 H12         -2.0960     5.1480    -4.7350 h1         1 BHR       0.041700
     42 H12A        -2.1100     4.5260    -6.3910 h1         1 BHR       0.041700
     43 H14         -0.1190     5.9760    -3.8180 ha         1 BHR       0.129000
     44 H15          2.3020     6.3940    -3.9930 ha         1 BHR       0.106000
     45 H16          3.6120     5.3390    -5.7930 ha         1 BHR       0.100000
     46 H17          2.5030     3.8560    -7.4210 ha         1 BHR       0.111000
     47 HO18         0.3900     3.3190    -8.2580 ho         1 BHR       0.387000
     48 H19         -2.3910     2.9240    -1.0150 h1         1 BHR       0.049200
     49 H19A        -1.8970     1.7890     0.2490 h1         1 BHR       0.049200
     50 H21         -3.9320     3.4660    -4.7270 h1         1 BHR       0.043700
     51 H21A        -3.4780     1.7710    -4.5030 h1         1 BHR       0.043700
@<TRIPOS>BOND
     1     1     2 ar
     2     1     7 ar
     3     1     9 1
     4     2     3 ar
     5     3     4 ar
     6     4     5 ar
     7     5     6 1
     8     5     7 ar
     9     7     8 1
    10     9    10 1
    11    10    11 1
    12    10    22 1
    13    11    12 1
    14    12    13 1
    15    13    14 1
    16    13    25 1
    17    14    15 1
    18    15    16 ar
    19    15    20 ar
    20    16    17 ar
    21    17    18 ar
    22    18    19 ar
    23    19    20 ar
    24    20    21 1
    25    22    23 1
    26    23    24 1
    27    23    26 1
    28    25    27 1
    29    27    28 1
    30    27    29 1
    31     2    30 1
    32     3    31 1
    33     4    32 1
    34     6    33 1
    35     8    34 1
    36     9    35 1
    37     9    36 1
    38    11    37 1
    39    11    38 1
    40    12    39 1
    41    12    40 1
    42    14    41 1
    43    14    42 1
    44    16    43 1
    45    17    44 1
    46    18    45 1
    47    19    46 1
    48    21    47 1
    49    22    48 1
    50    22    49 1
    51    25    50 1
    52    25    51 1
@<TRIPOS>SUBSTRUCTURE
     1 BHR         1 TEMP              0 ****  ****    0 ROOT
