@<TRIPOS>MOLECULE
BHR
   51    52     1     0     0
SMALL
bcc


@<TRIPOS>ATOM
      1 C1           0.0000     0.0000     0.0000 ca         1 BHR      -0.053300
      2 C2           1.3830     0.0000     0.0000 ca         1 BHR      -0.093000
      3 C3           2.0770     0.0000     1.1950 ca         1 BHR      -0.131000
      4 C4           1.3930    -0.0010     2.3960 ca         1 BHR      -0.169000
      5 C5           0.0060    -0.0030     2.4030 ca         1 BHR       0.033100
      6 O5          -0.6690    -0.0040     3.5840 oh         1 BHR      -0.484100
      7 C6          -0.6930    -0.0020     1.2000 ca         1 BHR       0.128100
      8 O6          -2.0530    -0.0020     1.2030 oh         1 BHR      -0.418100
      9 C7          -0.7540     0.0060    -1.3050 c3         1 BHR       0.162100
     10 N8          -1.1150     1.3870    -1.6540 n3         1 BHR      -0.533600
     11 C9          -1.4870     1.4920    -3.0710 c3         1 BHR       0.099800
     12 C10         -1.4730     2.9620    -3.4950 c3         1 BHR       0.124800
     13 N11         -1.8820     3.0690    -4.9020 n3         1 BHR      -0.488600
     14 C12         -1.6550     4.4280    -5.4130 c3         1 BHR       0.201100
     15 C13         -0.1730     4.6820    -5.5210 ca         1 BHR      -0.085300
     16 C14          0.4540     5.5100    -4.6100 ca         1 BHR      -0.075000
     17 C15          1.8130     5.7450    -4.7080 ca         1 BHR      -0.169000
     18 C16          2.5480     5.1520    -5.7170 ca         1 BHR      -0.095000
     19 C17          1.9260     4.3220    -6.6310 ca         1 BHR      -0.230000
     20 C18          0.5640     4.0820    -6.5320 ca         1 BHR       0.181100
     21 O18         -0.0500     3.2620    -7.4260 oh         1 BHR      -0.381100
     22 C19         -2.1940     1.8830    -0.7880 c3         1 BHR       0.008800
     23 C20         -3.4430     1.0720    -1.0270 c          1 BHR       0.974600
     24 O20         -3.4130     0.1230    -1.7740 o          1 BHR      -0.901800
     25 C21         -3.2840     2.6700    -5.0750 c3         1 BHR       0.020800
     26 O21         -4.5880     1.4060    -0.4110 o          1 BHR      -0.901800
     27 C22         -3.5550     2.4050    -6.5330 c          1 BHR       0.979600
     28 O22         -2.6480     2.4350    -7.3310 o          1 BHR      -0.909800
     29 O23         -4.8040     2.1360    -6.9460 o          1 BHR      -0.909800
     30 H2           1.9230     0.0010    -0.9390 ha         1 BHR       0.108000
     31 H3           3.1600     0.0010     1.1910 ha         1 BHR       0.085000
     32 H4           1.9390    -0.0010     3.3310 ha         1 BHR       0.090000
     33 HO5         -0.4550    -0.7850     4.0670 ho         1 BHR       0.375000
     34 HO6         -2.3660    -0.7220     1.7240 ho         1 BHR       0.382000
     35 H7          -0.1290    -0.4110    -2.0850 h1         1 BHR       0.046700
     36 H7A         -1.6530    -0.5890    -1.2060 h1         1 BHR       0.046700
     37 H9          -2.4810     1.0840    -3.2150 h1         1 BHR       0.053200
     38 H9A         -0.7780     0.9360    -3.6730 h1         1 BHR       0.053200
     39 H10         -0.4730     3.3620    -3.3780 h1         1 BHR       0.000700
     40 H10A        -2.1620     3.5230    -2.8750 h1         1 BHR       0.000700
     41 H12         -2.0960     5.1480    -4.7350 h1         1 BHR       0.020200
     42 H12A        -2.1100     4.5260    -6.3910 h1         1 BHR       0.020200
     43 H14         -0.1190     5.9760    -3.8180 ha         1 BHR       0.103000
     44 H15          2.3020     6.3940    -3.9930 ha         1 BHR       0.085000
     45 H16          3.6120     5.3390    -5.7930 ha         1 BHR       0.077000
     46 H17          2.5030     3.8560    -7.4210 ha         1 BHR       0.094000
     47 HO18         0.3900     3.3190    -8.2580 ho         1 BHR       0.364000
     48 H19         -2.3910     2.9240    -1.0150 h1         1 BHR       0.029200
     49 H19A        -1.8970     1.7890     0.2490 h1         1 BHR       0.029200
     50 H21         -3.9320     3.4660    -4.7270 h1         1 BHR       0.025700
     51 H21A        -3.4780     1.7710    -4.5030 h1         1 BHR       0.025700
@<TRIPOS>BOND
     1     1     2 ar  
     2     1     7 ar  
     3     1     9 1   
     4     2     3 ar  
     5     2    30 1   
     6     3     4 ar  
     7     3    31 1   
     8     4     5 ar  
     9     4    32 1   
    10     5     6 1   
    11     5     7 ar  
    12     6    33 1   
    13     7     8 1   
    14     8    34 1   
    15     9    10 1   
    16     9    35 1   
    17     9    36 1   
    18    10    11 1   
    19    10    22 1   
    20    11    12 1   
    21    11    37 1   
    22    11    38 1   
    23    12    13 1   
    24    12    39 1   
    25    12    40 1   
    26    13    14 1   
    27    13    25 1   
    28    14    15 1   
    29    14    41 1   
    30    14    42 1   
    31    15    16 ar  
    32    15    20 ar  
    33    16    17 ar  
    34    16    43 1   
    35    17    18 ar  
    36    17    44 1   
    37    18    19 ar  
    38    18    45 1   
    39    19    20 ar  
    40    19    46 1   
    41    20    21 1   
    42    21    47 1   
    43    22    23 1   
    44    22    48 1   
    45    22    49 1   
    46    23    24 1   
    47    23    26 1   
    48    25    27 1   
    49    25    50 1   
    50    25    51 1   
    51    27    28 1   
    52    27    29 1   
@<TRIPOS>SUBSTRUCTURE
     1 BHR         1 TEMP              0 ****  ****    0 ROOT
