@<TRIPOS>MOLECULE
BHS
   32    33     1     0     0
SMALL
bcc


@<TRIPOS>ATOM
      1 N1          0.2380   -0.9140   -0.1940 nc        1 BHS     -0.699300
      2 C2          1.5530   -1.1190   -0.0120 cd        1 BHS      0.664800
      3 N2          2.2230   -2.0650   -0.8330 nh        1 BHS     -0.882800
      4 N3          2.3030   -0.4940    0.9980 n         1 BHS     -0.490400
      5 C4          1.6750    0.3370    1.9490 c         1 BHS      0.715700
      6 O4          2.3800    0.7980    2.8690 o         1 BHS     -0.648500
      7 C4A         0.2450    0.5710    1.7640 cd        1 BHS     -0.172200
      8 C8A        -0.4230   -0.0580    0.6960 cc        1 BHS      0.380600
      9 N5         -0.4140    1.4820    2.6270 nh        1 BHS     -0.658000
     10 C6         -1.8270    1.1490    2.8030 c3        1 BHS      0.128500
     11 C7         -2.5330    0.9310    1.4400 c3        1 BHS      0.201800
     12 N8         -1.7740    0.2020    0.4560 nh        1 BHS     -0.731000
     13 C1'        -2.5810    2.2630    3.5640 c3        1 BHS      0.155100
     14 O1'        -2.7010    3.4550    2.8150 oh        1 BHS     -0.598800
     15 C2'        -1.9240    2.5750    4.9250 c3        1 BHS      0.107100
     16 O2'        -1.4700    1.3380    5.4620 oh        1 BHS     -0.608800
     17 C3'        -2.9130    3.2540    5.8520 c3        1 BHS     -0.131100
     18 HN21        3.1350   -1.7820   -1.1210 hn        1 BHS      0.412300
     19 HN22        1.6650   -2.4100   -1.5860 hn        1 BHS      0.412300
     20 HN3         3.2670   -0.7100    1.1290 hn        1 BHS      0.336500
     21 HN5         0.0510    1.5210    3.5210 hn        1 BHS      0.400800
     22 H6         -1.9480    0.2030    3.4150 h1        1 BHS      0.057700
     23 H71        -2.7720    1.9420    0.9940 h1        1 BHS      0.058700
     24 H72        -3.5050    0.3980    1.6410 h1        1 BHS      0.058700
     25 HN8        -2.2770   -0.4770   -0.0720 hn        1 BHS      0.430800
     26 H1'        -3.6430    1.9230    3.7240 h1        1 BHS      0.079700
     27 HO1        -1.8160    3.7180    2.5300 ho        1 BHS      0.421000
     28 H2'        -1.0350    3.2510    4.7610 h1        1 BHS      0.045700
     29 HO2        -1.1710    1.5180    6.3610 ho        1 BHS      0.409000
     30 H3'1       -2.4000    3.6050    6.7790 hc        1 BHS      0.048700
     31 H3'2       -3.3660    4.1320    5.3320 hc        1 BHS      0.048700
     32 H3'3       -3.7250    2.5460    6.1420 hc        1 BHS      0.048700
@<TRIPOS>BOND
     1    1    2 2
     2    1    8 1
     3    2    3 1
     4    2    4 1
     5    3   18 1
     6    3   19 1
     7    4    5 1
     8    4   20 1
     9    5    6 2
    10    5    7 1
    11    7    8 2
    12    7    9 1
    13    8   12 1
    14    9   10 1
    15    9   21 1
    16   10   11 1
    17   10   13 1
    18   10   22 1
    19   11   12 1
    20   11   23 1
    21   11   24 1
    22   12   25 1
    23   13   14 1
    24   13   15 1
    25   13   26 1
    26   14   27 1
    27   15   16 1
    28   15   17 1
    29   15   28 1
    30   16   29 1
    31   17   30 1
    32   17   31 1
    33   17   32 1
@<TRIPOS>SUBSTRUCTURE
     1 BHS         1 TEMP              0 ****  ****    0 ROOT
