@<TRIPOS>MOLECULE
molecule
  105   109     1     0     0
SMALL
bcc


@<TRIPOS>ATOM
      1 C21          0.0000     0.0000     0.0000 c3         1 BHV       0.144300
      2 C31         -3.2280    -3.1970    -1.7350 c2         1 BHV      -0.031400
      3 C5           3.7780     0.0000     0.0000 ca         1 BHV      -0.086000
      4 C2           1.6990     0.0040     1.8340 ca         1 BHV      -0.096000
      5 C6           4.0610     0.0000     1.3520 ca         1 BHV      -0.117000
      6 C1           3.0210     0.0020     2.2780 ca         1 BHV      -0.085500
      7 C4           2.4650     0.0020    -0.4340 ca         1 BHV      -0.167300
      8 C13          2.1640     0.0070    -1.9110 c3         1 BHV       0.674200
      9 C25         -1.6320    -1.6030    -0.8390 c          1 BHV       0.670300
     10 C29         -2.0230    -2.9700    -1.2180 ce         1 BHV      -0.275200
     11 C3           1.4280    -0.0020     0.4810 ca         1 BHV      -0.070300
     12 C33         -3.7000    -4.6120    -1.9480 c3         1 BHV      -0.060400
     13 C35         -4.1180    -2.0400    -2.1080 c3         1 BHV      -0.060400
     14 C37          3.3180     0.0040     3.7320 cd         1 BHV       0.397800
     15 C39          4.3900    -0.6470     4.3570 cd         1 BHV      -0.314600
     16 C40          4.3150    -0.4010     5.6870 cc         1 BHV      -0.057600
     17 C48          5.2950    -0.9230     6.7080 c3         1 BHV      -0.038100
     18 C49          6.0770    -2.0910     6.0930 c3         1 BHV       0.108000
     19 C51          5.4670    -1.4890     3.7140 c3         1 BHV       0.192300
     20 C59          3.4300     2.2200     7.4920 c3         1 BHV      -0.107400
     21 C61          2.9540     2.7380     8.8500 c3         1 BHV       0.163800
     22 C65          3.1040     5.0610     8.1830 c3         1 BHV       0.121800
     23 C66          3.8230     6.3820     8.4660 c3         1 BHV       0.139900
     24 C68          4.0540     5.7840    10.7730 c3         1 BHV       0.139900
     25 C69          3.3370     4.4570    10.5140 c3         1 BHV       0.121800
     26 C80          8.8580    -1.8520     5.4930 c3         1 BHV      -0.154400
     27 C82         10.2510    -1.6530     4.8930 c3         1 BHV      -0.055700
     28 C84         10.4260    -0.1900     4.4830 c3         1 BHV      -0.101400
     29 C85         11.8100    -0.0010     3.8520 c3         1 BHV       0.117000
     30 C87         12.7050    -1.8580     5.3160 c3         1 BHV       0.117000
     31 C88         11.3110    -2.0250     5.9320 c3         1 BHV      -0.101400
     32 C93         15.2860     1.9920     7.0280 c3         1 BHV      -0.105767
     33 C94         16.6350     1.1290     5.1110 c3         1 BHV      -0.105767
     34 C96         16.8110     0.0400     7.3530 c3         1 BHV      -0.105767
     35 C98         15.8650     0.7370     6.3730 c3         1 BHV       0.177800
     36 F15          3.3630     0.0080    -2.6320 f          1 BHV      -0.220300
     37 F17          1.4240    -1.1350    -2.2390 f          1 BHV      -0.220300
     38 F19          1.4240     1.1500    -2.2320 f          1 BHV      -0.220300
     39 N23         -0.3890    -1.3620    -0.3770 ns         1 BHV      -0.578900
     40 N41          3.2340     0.3700     5.9050 na         1 BHV       0.081400
     41 N42          2.6220     0.6200     4.6670 nc         1 BHV      -0.495800
     42 N50          6.5060    -1.7220     4.7350 n          1 BHV      -0.497800
     43 N63          3.5780     4.0380     9.1250 n3         1 BHV      -0.728600
     44 N86         12.8280    -0.4920     4.7890 n          1 BHV      -0.480800
     45 O27         -2.4300    -0.6910    -0.9440 o          1 BHV      -0.625100
     46 O67          3.6010     6.7570     9.8280 os         1 BHV      -0.423600
     47 O78          8.1520    -1.3000     3.3100 o          1 BHV      -0.609100
     48 O97         13.9490     1.4230     4.7160 o          1 BHV      -0.619000
     49 O99         14.7840    -0.1670     6.0190 os         1 BHV      -0.439900
     50 H1          -0.0910     0.6530    -0.8600 h1         1 BHV       0.070700
     51 H2          -0.6480     0.3540     0.7920 h1         1 BHV       0.070700
     52 H3           4.5860    -0.0020    -0.7210 ha         1 BHV       0.157000
     53 H4           0.8860     0.0050     2.5500 ha         1 BHV       0.157000
     54 H5           5.0900    -0.0010     1.6910 ha         1 BHV       0.155000
     55 H6          -1.3850    -3.8040    -0.9520 ha         1 BHV       0.126000
     56 H7          -3.4560    -4.9260    -2.9560 hc         1 BHV       0.052033
     57 H8          -4.7730    -4.6590    -1.8050 hc         1 BHV       0.052033
     58 H9          -3.2120    -5.2670    -1.2370 hc         1 BHV       0.052033
     59 H10         -5.0060    -2.4130    -2.6030 hc         1 BHV       0.052033
     60 H11         -3.5850    -1.3740    -2.7750 hc         1 BHV       0.052033
     61 H12         -4.4040    -1.5010    -1.2120 hc         1 BHV       0.052033
     62 H13          4.7580    -1.2680     7.5830 hc         1 BHV       0.062200
     63 H14          5.9830    -0.1330     6.9850 hc         1 BHV       0.062200
     64 H15          5.4100    -2.9410     6.0180 h1         1 BHV       0.061700
     65 H16          6.9620    -2.2590     6.6940 h1         1 BHV       0.061700
     66 H17          5.0510    -2.4360     3.3920 h1         1 BHV       0.069200
     67 H18          5.8930    -0.9600     2.8700 h1         1 BHV       0.069200
     68 H19          3.0570     0.1600     7.9780 h1         1 BHV       0.066200
     69 H20          1.7010     0.9790     7.1910 h1         1 BHV       0.066200
     70 H21          3.1510     2.9250     6.7180 hc         1 BHV       0.065700
     71 H22          3.2330     2.0320     9.6240 h1         1 BHV       0.034700
     72 H23          2.0360     5.1980     8.3070 h1         1 BHV       0.044200
     73 H24          3.3180     4.7440     7.1690 h1         1 BHV       0.044200
     74 H25          3.4320     7.1520     7.8120 h1         1 BHV       0.054700
     75 H26          4.8850     6.2590     8.2940 h1         1 BHV       0.054700
     76 H27          3.8290     6.1250    11.7770 h1         1 BHV       0.054700
     77 H28          5.1220     5.6440    10.6630 h1         1 BHV       0.054700
     78 H29          3.7200     3.7020    11.1900 h1         1 BHV       0.044200
     79 H30          2.2730     4.5850    10.6720 h1         1 BHV       0.044200
     80 H31          8.7640    -2.8660     5.8610 hc         1 BHV       0.061200
     81 H32          8.7140    -1.1560     6.3110 hc         1 BHV       0.061200
     82 H33         10.3660    -2.2850     4.0210 hc         1 BHV       0.070700
     83 H34          9.6620     0.0770     3.7640 hc         1 BHV       0.056200
     84 H35         10.3410     0.4420     5.3600 hc         1 BHV       0.056200
     85 H36         11.9770     1.0500     3.6530 h1         1 BHV       0.062200
     86 H37         11.8660    -0.5650     2.9280 h1         1 BHV       0.062200
     87 H38         13.4580    -2.0230     6.0760 h1         1 BHV       0.062200
     88 H39         12.8320    -2.5710     4.5100 h1         1 BHV       0.062200
     89 H40         11.1720    -3.0550     6.2350 hc         1 BHV       0.056200
     90 H41         11.2170    -1.3730     6.7920 hc         1 BHV       0.056200
     91 H42         14.9190     2.6630     6.2610 hc         1 BHV       0.049478
     92 H43         14.4700     1.7140     7.6850 hc         1 BHV       0.049478
     93 H44         16.0580     2.4890     7.6030 hc         1 BHV       0.049478
     94 H45         16.7090     0.2720     4.4520 hc         1 BHV       0.049478
     95 H46         16.1130     1.9310     4.6030 hc         1 BHV       0.049478
     96 H47         17.6300     1.4610     5.3830 hc         1 BHV       0.049478
     97 H48         16.2670    -0.2330     8.2480 hc         1 BHV       0.049478
     98 H49         17.2180    -0.8510     6.8900 hc         1 BHV       0.049478
     99 H50         17.6200     0.7130     7.6130 hc         1 BHV       0.049478
    100 H51          0.2470    -2.1210    -0.2340 hn         1 BHV       0.319500
    101 H52          4.5070     2.1060     7.5060 hc         1 BHV       0.065700
    102 H53          1.8760     2.8500     8.8360 h1         1 BHV       0.034700
    103 C57          2.7780     0.8660     7.2050 c3         1 BHV       0.071300
    104 C76          7.8150    -1.6040     4.4340 c          1 BHV       0.667100
    105 C95         13.8570     0.2950     5.1590 c          1 BHV       0.758100
@<TRIPOS>BOND
     1    48   105 2
     2    29    28 1
     3    29    44 1
     4    28    27 1
     5   105    44 1
     6   105    49 1
     7    44    30 1
     8    32    35 1
     9    33    35 1
    10    27    26 1
    11    27    31 1
    12    26   104 1
    13    49    35 1
    14    35    34 1
    15    30    31 1
    16   104    47 2
    17   104    42 1
    18    18    42 1
    19    18    17 1
    20    42    19 1
    21    17    16 1
    22    16    40 1
    23    16    15 2
    24   103    40 1
    25   103    20 1
    26    19    15 1
    27    40    41 1
    28    15    14 1
    29    41    14 2
    30    14     6 1
    31    20    21 1
    32    21    43 1
    33     5     6 ar
    34     5     3 ar
    35     6     4 ar
    36    25    43 1
    37    25    24 1
    38     3     7 ar
    39     4    11 ar
    40    43    22 1
    41     7    11 ar
    42     7     8 1
    43    11     1 1
    44    22    23 1
    45    24    46 1
    46    38     8 1
    47    37     8 1
    48     8    36 1
    49     1    39 1
    50    45     9 2
    51    46    23 1
    52    39     9 1
    53     9    10 1
    54    10     2 2
    55     2    13 1
    56     2    12 1
    57     1    50 1
    58     1    51 1
    59     3    52 1
    60     4    53 1
    61     5    54 1
    62    10    55 1
    63    12    56 1
    64    12    57 1
    65    12    58 1
    66    13    59 1
    67    13    60 1
    68    13    61 1
    69    17    62 1
    70    17    63 1
    71    18    64 1
    72    18    65 1
    73    19    66 1
    74    19    67 1
    75   103    68 1
    76   103    69 1
    77    20    70 1
    78    21    71 1
    79    22    72 1
    80    22    73 1
    81    23    74 1
    82    23    75 1
    83    24    76 1
    84    24    77 1
    85    25    78 1
    86    25    79 1
    87    26    80 1
    88    26    81 1
    89    27    82 1
    90    28    83 1
    91    28    84 1
    92    29    85 1
    93    29    86 1
    94    30    87 1
    95    30    88 1
    96    31    89 1
    97    31    90 1
    98    32    91 1
    99    32    92 1
   100    32    93 1
   101    33    94 1
   102    33    95 1
   103    33    96 1
   104    34    97 1
   105    34    98 1
   106    34    99 1
   107    39   100 1
   108    20   101 1
   109    21   102 1
@<TRIPOS>SUBSTRUCTURE
     1 BHV         1 TEMP              0 ****  ****    0 ROOT
