@<TRIPOS>MOLECULE
BHV
  105   109     1     0     0
SMALL
bcc


@<TRIPOS>ATOM
      1 C21          0.0000     0.0000     0.0000 c3         1 BHV       0.082300
      2 C31         -3.2280    -3.1970    -1.7350 c2         1 BHV      -0.027400
      3 C5           3.7780     0.0000     0.0000 ca         1 BHV      -0.045000
      4 C2           1.6990     0.0040     1.8340 ca         1 BHV      -0.071000
      5 C6           4.0610     0.0000     1.3520 ca         1 BHV      -0.105000
      6 C1           3.0210     0.0020     2.2780 ca         1 BHV      -0.077500
      7 C4           2.4650     0.0020    -0.4340 ca         1 BHV      -0.200300
      8 C13          2.1640     0.0070    -1.9110 c3         1 BHV       0.644200
      9 C25         -1.6320    -1.6030    -0.8390 c          1 BHV       0.595300
     10 C29         -2.0230    -2.9700    -1.2180 ce         1 BHV      -0.277200
     11 C3           1.4280    -0.0020     0.4810 ca         1 BHV      -0.060300
     12 C33         -3.7000    -4.6120    -1.9480 c3         1 BHV       0.039600
     13 C35         -4.1180    -2.0400    -2.1080 c3         1 BHV       0.039600
     14 C37          3.3180     0.0040     3.7320 cc         1 BHV       0.432800
     15 C39          4.3900    -0.6470     4.3570 cc         1 BHV      -0.326600
     16 C40          4.3150    -0.4010     5.6870 cd         1 BHV      -0.233600
     17 C48          5.2950    -0.9230     6.7080 c3         1 BHV       0.047900
     18 C49          6.0770    -2.0910     6.0930 c3         1 BHV       0.047000
     19 C51          5.4670    -1.4890     3.7140 c3         1 BHV       0.156300
     20 C59          3.4300     2.2200     7.4920 c3         1 BHV      -0.059400
     21 C61          2.9540     2.7380     8.8500 c3         1 BHV       0.160800
     22 C65          3.1040     5.0610     8.1830 c3         1 BHV       0.107300
     23 C66          3.8230     6.3820     8.4660 c3         1 BHV       0.214900
     24 C68          4.0540     5.7840    10.7730 c3         1 BHV       0.214900
     25 C69          3.3370     4.4570    10.5140 c3         1 BHV       0.107300
     26 C80          8.8580    -1.8520     5.4930 c3         1 BHV      -0.099400
     27 C82         10.2510    -1.6530     4.8930 c3         1 BHV      -0.035700
     28 C84         10.4260    -0.1900     4.4830 c3         1 BHV      -0.054900
     29 C85         11.8100    -0.0010     3.8520 c3         1 BHV       0.058000
     30 C87         12.7050    -1.8580     5.3160 c3         1 BHV       0.058000
     31 C88         11.3110    -2.0250     5.9320 c3         1 BHV      -0.054900
     32 C93         15.2860     1.9920     7.0280 c3         1 BHV      -0.030433
     33 C94         16.6350     1.1290     5.1110 c3         1 BHV      -0.030433
     34 C96         16.8110     0.0400     7.3530 c3         1 BHV      -0.030433
     35 C98         15.8650     0.7370     6.3730 c3         1 BHV       0.194800
     36 F15          3.3630     0.0080    -2.6320 f          1 BHV      -0.206633
     37 F17          1.4240    -1.1350    -2.2390 f          1 BHV      -0.206633
     38 F19          1.4240     1.1500    -2.2320 f          1 BHV      -0.206633
     39 N23         -0.3890    -1.3620    -0.3770 ns         1 BHV      -0.196900
     40 N41          3.2340     0.3700     5.9050 na         1 BHV       0.519400
     41 N42          2.6220     0.6200     4.6670 nd         1 BHV      -0.638800
     42 N50          6.5060    -1.7220     4.7350 n          1 BHV      -0.164800
     43 N63          3.5780     4.0380     9.1250 n3         1 BHV      -0.538600
     44 N86         12.8280    -0.4920     4.7890 n          1 BHV      -0.139800
     45 O27         -2.4300    -0.6910    -0.9440 o          1 BHV      -0.663100
     46 O67          3.6010     6.7570     9.8280 os         1 BHV      -0.409600
     47 O78          8.1520    -1.3000     3.3100 o          1 BHV      -0.645100
     48 O97         13.9490     1.4230     4.7160 o          1 BHV      -0.665000
     49 O99         14.7840    -0.1670     6.0190 os         1 BHV      -0.420900
     50 H1          -0.0910     0.6530    -0.8600 h1         1 BHV       0.042700
     51 H2          -0.6480     0.3540     0.7930 h1         1 BHV       0.042700
     52 H3           4.5860    -0.0020    -0.7210 ha         1 BHV       0.126000
     53 H4           0.8860     0.0050     2.5500 ha         1 BHV       0.129000
     54 H5           5.0900    -0.0010     1.6910 ha         1 BHV       0.131000
     55 H6          -1.3420    -3.7950    -1.0470 ha         1 BHV       0.110000
     56 H7          -4.6220    -4.6030    -2.5170 hc         1 BHV       0.018200
     57 H8          -2.9460    -5.1670    -2.4920 hc         1 BHV       0.018200
     58 H9          -3.8740    -5.0830    -0.9880 hc         1 BHV       0.018200
     59 H10         -4.9820    -2.4080    -2.6480 hc         1 BHV       0.018200
     60 H11         -3.5680    -1.3480    -2.7340 hc         1 BHV       0.018200
     61 H12         -4.4450    -1.5320    -1.2080 hc         1 BHV       0.018200
     62 H13          5.9830    -0.1330     6.9860 hc         1 BHV       0.027700
     63 H14          4.7580    -1.2680     7.5830 hc         1 BHV       0.027700
     64 H15          6.9620    -2.2590     6.6940 h1         1 BHV       0.034700
     65 H16          5.4100    -2.9410     6.0180 h1         1 BHV       0.034700
     66 H17          5.0510    -2.4350     3.3920 h1         1 BHV       0.040200
     67 H18          5.8930    -0.9600     2.8700 h1         1 BHV       0.040200
     68 H19          1.7010     0.9790     7.1910 h1         1 BHV       0.038700
     69 H20          3.0570     0.1600     7.9780 h1         1 BHV       0.038700
     70 H21          3.1510     2.9250     6.7180 hc         1 BHV       0.037200
     71 H22          1.8760     2.8500     8.8360 h1         1 BHV       0.010200
     72 H23          3.3180     4.7440     7.1690 h1         1 BHV       0.019200
     73 H24          2.0360     5.1980     8.3070 h1         1 BHV       0.019200
     74 H25          4.8850     6.2590     8.2930 h1         1 BHV       0.013950
     75 H26          3.4320     7.1520     7.8120 h1         1 BHV       0.013950
     76 H27          3.8290     6.1250    11.7770 h1         1 BHV       0.013950
     77 H28          5.1220     5.6440    10.6630 h1         1 BHV       0.013950
     78 H29          2.2730     4.5850    10.6720 h1         1 BHV       0.019200
     79 H30          3.7200     3.7020    11.1900 h1         1 BHV       0.019200
     80 H31          8.7640    -2.8660     5.8610 hc         1 BHV       0.032700
     81 H32          8.7140    -1.1560     6.3110 hc         1 BHV       0.032700
     82 H33         10.3660    -2.2850     4.0210 hc         1 BHV       0.048700
     83 H34          9.6620     0.0770     3.7640 hc         1 BHV       0.030450
     84 H35         10.3410     0.4420     5.3600 hc         1 BHV       0.030450
     85 H36         11.9770     1.0500     3.6530 h1         1 BHV       0.033200
     86 H37         11.8660    -0.5650     2.9280 h1         1 BHV       0.033200
     87 H38         13.4580    -2.0230     6.0760 h1         1 BHV       0.033200
     88 H39         12.8320    -2.5710     4.5100 h1         1 BHV       0.033200
     89 H40         11.2170    -1.3730     6.7920 hc         1 BHV       0.030450
     90 H41         11.1720    -3.0550     6.2350 hc         1 BHV       0.030450
     91 H42         14.8910     2.6500     6.2630 hc         1 BHV       0.019144
     92 H43         14.4910     1.7110     7.7080 hc         1 BHV       0.019144
     93 H44         16.0660     2.5050     7.5780 hc         1 BHV       0.019144
     94 H45         17.6190     1.4890     5.3850 hc         1 BHV       0.019144
     95 H46         16.0980     1.9100     4.5880 hc         1 BHV       0.019144
     96 H47         16.7340     0.2640     4.4650 hc         1 BHV       0.019144
     97 H48         17.6220     0.7110     7.6100 hc         1 BHV       0.019144
     98 H49         17.2150    -0.8530     6.8920 hc         1 BHV       0.019144
     99 H50         16.2680    -0.2300     8.2500 hc         1 BHV       0.019144
    100 H51          0.2500    -2.1200    -0.2410 hn         1 BHV       0.181500
    101 H52          4.5070     2.1060     7.5060 hc         1 BHV       0.037200
    102 H53          3.2330     2.0320     9.6240 h1         1 BHV       0.010200
    103 C57          2.7780     0.8660     7.2050 c3         1 BHV      -0.018700
    104 C76          7.8150    -1.6040     4.4340 c          1 BHV       0.594100
    105 C95         13.8570     0.2950     5.1590 c          1 BHV       0.703100
@<TRIPOS>BOND
     1     1    11 1   
     2     1    39 1   
     3     1    50 1   
     4     1    51 1   
     5     2    10 2   
     6     2    12 1   
     7     2    13 1   
     8     3     5 ar  
     9     3     7 ar  
    10     3    52 1   
    11     4     6 ar  
    12     4    11 ar  
    13     4    53 1   
    14     5     6 ar  
    15     5    54 1   
    16     6    14 1   
    17     7     8 1   
    18     7    11 ar  
    19     8    36 1   
    20     8    37 1   
    21     8    38 1   
    22     9    10 1   
    23     9    39 1   
    24     9    45 2   
    25    10    55 1   
    26    12    56 1   
    27    12    57 1   
    28    12    58 1   
    29    13    59 1   
    30    13    60 1   
    31    13    61 1   
    32    14    15 1   
    33    14    41 2   
    34    15    16 2   
    35    15    19 1   
    36    16    17 1   
    37    16    40 1   
    38    17    18 1   
    39    17    62 1   
    40    17    63 1   
    41    18    42 1   
    42    18    64 1   
    43    18    65 1   
    44    19    42 1   
    45    19    66 1   
    46    19    67 1   
    47    20    21 1   
    48    20    70 1   
    49    20   101 1   
    50    20   103 1   
    51    21    43 1   
    52    21    71 1   
    53    21   102 1   
    54    22    23 1   
    55    22    43 1   
    56    22    72 1   
    57    22    73 1   
    58    23    46 1   
    59    23    74 1   
    60    23    75 1   
    61    24    25 1   
    62    24    46 1   
    63    24    76 1   
    64    24    77 1   
    65    25    43 1   
    66    25    78 1   
    67    25    79 1   
    68    26    27 1   
    69    26    80 1   
    70    26    81 1   
    71    26   104 1   
    72    27    28 1   
    73    27    31 1   
    74    27    82 1   
    75    28    29 1   
    76    28    83 1   
    77    28    84 1   
    78    29    44 1   
    79    29    85 1   
    80    29    86 1   
    81    30    31 1   
    82    30    44 1   
    83    30    87 1   
    84    30    88 1   
    85    31    89 1   
    86    31    90 1   
    87    32    35 1   
    88    32    91 1   
    89    32    92 1   
    90    32    93 1   
    91    33    35 1   
    92    33    94 1   
    93    33    95 1   
    94    33    96 1   
    95    34    35 1   
    96    34    97 1   
    97    34    98 1   
    98    34    99 1   
    99    35    49 1   
   100    39   100 1   
   101    40    41 1   
   102    40   103 1   
   103    42   104 1   
   104    44   105 1   
   105    47   104 2   
   106    48   105 2   
   107    49   105 1   
   108    68   103 1   
   109    69   103 1   
@<TRIPOS>SUBSTRUCTURE
     1 BHV         1 TEMP              0 ****  ****    0 ROOT
