@<TRIPOS>MOLECULE
molecule
   29    28     1     0     0
SMALL
bcc


@<TRIPOS>ATOM
      1 O3           0.0000     0.0000     0.0000 o          1 BHX      -0.912800
      2 C2           1.2080     0.0000     0.0000 c          1 BHX       0.893600
      3 O2           1.8800     0.0000     1.1610 o          1 BHX      -0.912800
      4 C4           1.9600    -0.0070    -1.3060 c3         1 BHX      -0.135400
      5 C5           0.9660    -0.0130    -2.4680 c3         1 BHX      -0.257600
      6 P6           1.8750    -0.0220    -4.0480 p5         1 BHX       1.010400
      7 O61          2.7000     1.3520    -4.1990 o          1 BHX      -0.830500
      8 O6           2.8150    -1.1650    -4.0700 o          1 BHX      -0.830500
      9 C1           0.6960    -0.1780    -5.4280 c3         1 BHX      -0.246600
     10 CA           1.4650    -0.3110    -6.7440 c3         1 BHX      -0.138700
     11 C            2.0230     1.0320    -7.1370 c          1 BHX       0.901600
     12 O            1.8270     1.9970    -6.4370 o          1 BHX      -0.868300
     13 OC           2.7400     1.1580    -8.2650 o          1 BHX      -0.868300
     14 CB           0.5210    -0.8110    -7.8390 c3         1 BHX      -0.028400
     15 CG           1.3150    -1.0620    -9.1220 c3         1 BHX      -0.186400
     16 CD           0.3850    -1.5550   -10.2010 c          1 BHX       0.893600
     17 OE2          0.8650    -1.8430   -11.4210 o          1 BHX      -0.921300
     18 OE1         -0.7930    -1.6910    -9.9670 o          1 BHX      -0.921300
     19 H4           2.5830     0.8760    -1.3690 hc         1 BHX       0.040200
     20 H4A          2.5830    -0.8920    -1.3590 hc         1 BHX       0.040200
     21 H5           0.3430     0.8710    -2.4150 hc         1 BHX       0.028700
     22 H5A          0.3430    -0.8980    -2.4060 hc         1 BHX       0.028700
     23 H1           0.0650     0.7020    -5.4660 hc         1 BHX       0.017200
     24 H1A          0.0810    -1.0570    -5.2790 hc         1 BHX       0.017200
     25 HA           2.2770    -1.0170    -6.6180 hc         1 BHX       0.052700
     26 HB          -0.2410    -0.0640    -8.0270 hc         1 BHX       0.004700
     27 HBA          0.0510    -1.7330    -7.5180 hc         1 BHX       0.004700
     28 HG           1.7840    -0.1400    -9.4430 hc         1 BHX       0.063200
     29 HGA          2.0780    -1.8090    -8.9340 hc         1 BHX       0.063200
@<TRIPOS>BOND
     1     1     2 1
     2     2     3 1
     3     2     4 1
     4     4     5 1
     5     4    19 1
     6     4    20 1
     7     5     6 1
     8     5    21 1
     9     5    22 1
    10     6     7 1
    11     6     8 1
    12     6     9 1
    13     9    10 1
    14     9    23 1
    15     9    24 1
    16    10    11 1
    17    10    14 1
    18    10    25 1
    19    11    12 1
    20    11    13 1
    21    14    15 1
    22    14    26 1
    23    14    27 1
    24    15    16 1
    25    15    28 1
    26    15    29 1
    27    16    17 1
    28    16    18 1
@<TRIPOS>SUBSTRUCTURE
     1 BHX         1 TEMP              0 ****  ****    0 ROOT
