@<TRIPOS>MOLECULE
BHX
   29    28     1     0     0
SMALL
bcc


@<TRIPOS>ATOM
      1 O3         -0.0230    0.3090   -0.0300 o         1 BHX     -0.914800
      2 C2          0.9740   -0.4470   -0.2630 c         1 BHX      0.899600
      3 O2          1.3420   -1.2890    0.6280 o         1 BHX     -0.914800
      4 C4          1.7900   -0.3340   -1.5460 c3        1 BHX     -0.142400
      5 C5          1.0350   -0.1850   -2.8350 c3        1 BHX     -0.315600
      6 P6          2.1830    0.0190   -4.1060 p5        1 BHX      1.269400
      7 O61         3.1020    1.1420   -3.7330 o         1 BHX     -0.916500
      8 O6          2.8280   -1.3050   -4.3660 o         1 BHX     -0.916500
      9 C1          1.1080    0.4950   -5.3360 c3        1 BHX     -0.337600
     10 CA          1.5920    0.2450   -6.7520 c3        1 BHX     -0.118700
     11 C           1.7090    1.5510   -7.5700 c         1 BHX      0.917600
     12 O           0.8000    2.4400   -7.5140 o         1 BHX     -0.901300
     13 OC          2.7230    1.7220   -8.3220 o         1 BHX     -0.901300
     14 CB          0.6620   -0.7190   -7.5000 c3        1 BHX     -0.034400
     15 CG          1.2310   -1.2160   -8.8120 c3        1 BHX     -0.166400
     16 CD          0.3180   -2.1090   -9.6470 c         1 BHX      0.899600
     17 OE2         0.8580   -2.8740  -10.5210 o         1 BHX     -0.911800
     18 OE1        -0.9470   -2.0950   -9.5270 o         1 BHX     -0.911800
     19 H4          2.4610    0.5630   -1.4450 hc        1 BHX      0.037700
     20 H4A         2.4510   -1.2360   -1.6370 hc        1 BHX      0.037700
     21 H5          0.3400    0.6830   -2.7560 hc        1 BHX      0.039200
     22 H5A         0.4050   -1.0870   -3.0130 hc        1 BHX      0.039200
     23 H1          0.1180   -0.0080   -5.2000 hc        1 BHX      0.051700
     24 H1A         0.9020    1.5920   -5.2330 hc        1 BHX      0.051700
     25 HA          2.6150   -0.2210   -6.6920 hc        1 BHX      0.048700
     26 HB         -0.3140   -0.2030   -7.6970 hc        1 BHX      0.020700
     27 HBA         0.4450   -1.6040   -6.8440 hc        1 BHX      0.020700
     28 HG          1.5070   -0.3280   -9.4410 hc        1 BHX      0.035200
     29 HGA         2.1780   -1.7820   -8.6130 hc        1 BHX      0.035200
@<TRIPOS>BOND
     1    1    2 1   
     2    2    3 1   
     3    2    4 1   
     4    4    5 1   
     5    4   19 1   
     6    4   20 1   
     7    5    6 1   
     8    5   21 1   
     9    5   22 1   
    10    6    7 1   
    11    6    8 1   
    12    6    9 1   
    13    9   10 1   
    14    9   23 1   
    15    9   24 1   
    16   10   11 1   
    17   10   14 1   
    18   10   25 1   
    19   11   12 1   
    20   11   13 1   
    21   14   15 1   
    22   14   26 1   
    23   14   27 1   
    24   15   16 1   
    25   15   28 1   
    26   15   29 1   
    27   16   17 1   
    28   16   18 1   
@<TRIPOS>SUBSTRUCTURE
     1 BHX         1 TEMP              0 ****  ****    0 ROOT
