@<TRIPOS>MOLECULE
molecule
   56    57     1     0     0
SMALL
bcc


@<TRIPOS>ATOM
      1 N1           0.0000     0.0000     0.0000 n7         1 BHY      -0.914100
      2 C2          -4.0440    -2.2360     1.0110 ca         1 BHY      -0.121000
      3 N2          -7.9630   -10.0810     5.6270 n7         1 BHY      -0.914100
      4 C4          -4.4080    -3.5990     2.9540 cp         1 BHY      -0.035000
      5 O4           2.0070     1.0870    -0.8460 o          1 BHY      -0.628300
      6 C6          -2.6180    -1.9990     2.9260 ca         1 BHY      -0.121000
      7 C7          -6.6100    -6.6270     4.9690 ca         1 BHY      -0.083800
      8 C1          -2.9740    -1.6260     1.6410 ca         1 BHY      -0.083800
      9 O1          -8.9890   -12.2730     5.8760 o          1 BHY      -0.628300
     10 S1          -8.3640   -11.4940     4.8640 s6         1 BHY       1.325900
     11 O2          -9.0830   -11.0800     3.7110 o          1 BHY      -0.628300
     12 S2           1.6560     0.0000     0.0000 s6         1 BHY       1.325900
     13 C3          -4.7620    -3.2200     1.6600 ca         1 BHY      -0.116750
     14 O3           2.0070     0.0000     1.3770 o          1 BHY      -0.628300
     15 C5          -3.3290    -2.9810     3.5840 ca         1 BHY      -0.116750
     16 C8          -5.5390    -6.0180     5.5990 ca         1 BHY      -0.121000
     17 C9          -4.8210    -5.0350     4.9500 ca         1 BHY      -0.116750
     18 C10         -5.1760    -4.6560     3.6560 cp         1 BHY      -0.035000
     19 C11         -6.2540    -5.2730     3.0270 ca         1 BHY      -0.116750
     20 C12         -6.9660    -6.2550     3.6850 ca         1 BHY      -0.121000
     21 C13         -7.3870    -7.7040     5.6800 c3         1 BHY      -0.033400
     22 C14         -2.1940    -0.5530     0.9280 c3         1 BHY      -0.033400
     23 C15         -0.7330    -0.9860     0.7980 c3         1 BHY       0.237300
     24 C16         -2.2700     0.7500     1.7260 c3         1 BHY      -0.084600
     25 C17         -8.8480    -7.2740     5.8160 c3         1 BHY      -0.084600
     26 C18         -7.3110    -9.0040     4.8780 c3         1 BHY       0.237300
     27 C19         -6.7700   -12.2220     4.3930 c3         1 BHY      -0.251300
     28 C20          2.1080    -1.5780    -0.7730 c3         1 BHY      -0.251300
     29 HN1         -0.5000     0.6480    -0.5760 hn         1 BHY       0.456800
     30 H2          -4.3190    -1.9410     0.0060 ha         1 BHY       0.134500
     31 HN2         -8.1290    -9.9780     6.6080 hn         1 BHY       0.456800
     32 H6          -1.7800    -1.5190     3.4160 ha         1 BHY       0.134500
     33 H3          -5.5990    -3.6960     1.1650 ha         1 BHY       0.135000
     34 H5          -3.0490    -3.2720     4.5900 ha         1 BHY       0.135000
     35 H8          -5.2640    -6.3130     6.6050 ha         1 BHY       0.134500
     36 H9          -3.9830    -4.5590     5.4440 ha         1 BHY       0.135000
     37 H11         -6.5340    -4.9820     2.0210 ha         1 BHY       0.135000
     38 H12         -7.8050    -6.7350     3.1960 ha         1 BHY       0.134500
     39 H13         -6.9640    -7.8630     6.6650 hc         1 BHY       0.057700
     40 H14         -2.6140    -0.3970    -0.0580 hc         1 BHY       0.057700
     41 H15         -0.6850    -1.9530     0.3100 h1         1 BHY       0.048700
     42 H15A        -0.2880    -1.0560     1.7830 h1         1 BHY       0.048700
     43 H16         -3.2660     0.8640     2.1380 hc         1 BHY       0.042533
     44 H16A        -2.0520     1.5860     1.0730 hc         1 BHY       0.042533
     45 H16B        -1.5470     0.7220     2.5320 hc         1 BHY       0.042533
     46 H17         -9.3710    -7.4720     4.8880 hc         1 BHY       0.042533
     47 H17A        -9.3160    -7.8300     6.6200 hc         1 BHY       0.042533
     48 H17B        -8.8940    -6.2140     6.0370 hc         1 BHY       0.042533
     49 H18         -7.8120    -8.8710     3.9260 h1         1 BHY       0.048700
     50 H18A        -6.2720    -9.2620     4.7060 h1         1 BHY       0.048700
     51 H19         -6.9030   -13.2770     4.1820 h1         1 BHY       0.097367
     52 H19A        -6.0640   -12.1030     5.2070 h1         1 BHY       0.097367
     53 H19B        -6.3920   -11.7220     3.5100 h1         1 BHY       0.097367
     54 H20          2.0000    -2.3780    -0.0510 h1         1 BHY       0.097367
     55 H20A         3.1360    -1.5330    -1.1120 h1         1 BHY       0.097367
     56 H20B         1.4580    -1.7650    -1.6190 h1         1 BHY       0.097367
@<TRIPOS>BOND
     1     1    12 1
     2     1    23 1
     3     2     8 ar
     4     2    13 ar
     5     3    10 1
     6     3    26 1
     7     4    13 ar
     8     4    15 ar
     9     4    18 1
    10     5    12 2
    11     6     8 ar
    12     6    15 ar
    13     7    16 ar
    14     7    20 ar
    15     7    21 1
    16     8    22 1
    17     9    10 2
    18    10    11 2
    19    10    27 1
    20    12    14 2
    21    12    28 1
    22    16    17 ar
    23    17    18 ar
    24    18    19 ar
    25    19    20 ar
    26    21    25 1
    27    21    26 1
    28    22    23 1
    29    22    24 1
    30     1    29 1
    31     2    30 1
    32     3    31 1
    33     6    32 1
    34    13    33 1
    35    15    34 1
    36    16    35 1
    37    17    36 1
    38    19    37 1
    39    20    38 1
    40    21    39 1
    41    22    40 1
    42    23    41 1
    43    23    42 1
    44    24    43 1
    45    24    44 1
    46    24    45 1
    47    25    46 1
    48    25    47 1
    49    25    48 1
    50    26    49 1
    51    26    50 1
    52    27    51 1
    53    27    52 1
    54    27    53 1
    55    28    54 1
    56    28    55 1
    57    28    56 1
@<TRIPOS>SUBSTRUCTURE
     1 BHY         1 TEMP              0 ****  ****    0 ROOT
