@<TRIPOS>MOLECULE
molecule
   49    50     1     0     0
SMALL
bcc


@<TRIPOS>ATOM
      1 C1           0.0000     0.0000     0.0000 ca         1 BHZ      -0.062300
      2 C2           1.3810     0.0000     0.0000 ca         1 BHZ      -0.100000
      3 C3           2.0740     0.0000     1.1980 ca         1 BHZ      -0.177000
      4 C4           1.3860     0.0010     2.3970 ca         1 BHZ      -0.131000
      5 C5           0.0040    -0.0000     2.4020 ca         1 BHZ      -0.219000
      6 C6          -0.6930    -0.0000     1.2020 ca         1 BHZ       0.135100
      7 O6          -2.0520     0.0000     1.2050 oh         1 BHZ      -0.451100
      8 C7          -0.7540     0.0060    -1.3040 c3         1 BHZ       0.194100
      9 N8          -1.1120     1.3870    -1.6570 n3         1 BHZ      -0.728600
     10 C9          -1.4740     1.4900    -3.0770 c3         1 BHZ       0.149800
     11 C10         -1.4330     2.9580    -3.5080 c3         1 BHZ       0.154800
     12 N11         -1.8720     3.0710    -4.9050 n3         1 BHZ      -0.696600
     13 C12         -1.6230     4.4210    -5.4280 c3         1 BHZ       0.212100
     14 C13         -0.1580     4.5750    -5.7440 ca         1 BHZ      -0.037300
     15 C14          0.3090     4.2960    -7.0140 ca         1 BHZ      -0.111000
     16 C15          1.6530     4.4370    -7.3050 ca         1 BHZ      -0.150500
     17 C16          2.5310     4.8600    -6.3230 ca         1 BHZ      -0.161000
     18 C17          2.0640     5.1400    -5.0530 ca         1 BHZ      -0.150500
     19 C18          0.7190     5.0030    -4.7640 ca         1 BHZ      -0.111000
     20 C19         -2.1950     1.8850    -0.7990 c3         1 BHZ       0.042800
     21 C20         -3.4490     1.0910    -1.0620 c          1 BHZ       0.877600
     22 O20         -3.4130     0.1280    -1.7910 o          1 BHZ      -0.858800
     23 C21         -3.2860     2.7040    -5.0450 c3         1 BHZ       0.047800
     24 O21         -4.6070     1.4530    -0.4860 o          1 BHZ      -0.858800
     25 C22         -3.5940     2.4280    -6.4940 c          1 BHZ       0.895600
     26 O22         -2.7020     2.4190    -7.3090 o          1 BHZ      -0.863800
     27 O23         -4.8570     2.1910    -6.8790 o          1 BHZ      -0.863800
     28 H2           1.9220    -0.0000    -0.9380 ha         1 BHZ       0.132000
     29 H3           3.1570     0.0000     1.1960 ha         1 BHZ       0.105000
     30 H4           1.9310     0.0010     3.3330 ha         1 BHZ       0.102000
     31 H5          -0.5350     0.0000     3.3420 ha         1 BHZ       0.115000
     32 HO6         -2.3650    -0.6000     1.8610 ho         1 BHZ       0.400000
     33 H7          -0.1310    -0.4160    -2.0840 h1         1 BHZ       0.065200
     34 H7A         -1.6560    -0.5860    -1.2030 h1         1 BHZ       0.065200
     35 H9          -0.7700     0.9200    -3.6710 h1         1 BHZ       0.067200
     36 H9A         -2.4730     1.0980    -3.2240 h1         1 BHZ       0.067200
     37 H10         -0.4220     3.3340    -3.4150 h1         1 BHZ       0.018200
     38 H10A        -2.0930     3.5390    -2.8740 h1         1 BHZ       0.018200
     39 H12         -2.2050     4.5710    -6.3290 h1         1 BHZ       0.037700
     40 H12A        -1.9120     5.1550    -4.6850 h1         1 BHZ       0.037700
     41 H14         -0.3790     3.9650    -7.7830 ha         1 BHZ       0.148500
     42 H15          2.0180     4.2180    -8.3010 ha         1 BHZ       0.105500
     43 H16          3.5850     4.9690    -6.5500 ha         1 BHZ       0.097000
     44 H17          2.7520     5.4730    -4.2850 ha         1 BHZ       0.105500
     45 H18          0.3540     5.2230    -3.7680 ha         1 BHZ       0.148500
     46 H19         -2.3770     2.9300    -1.0170 h1         1 BHZ       0.046700
     47 H19A        -1.9110     1.7770     0.2400 h1         1 BHZ       0.046700
     48 H21         -3.4890     1.8160    -4.4580 h1         1 BHZ       0.046200
     49 H21A        -3.9070     3.5190    -4.6930 h1         1 BHZ       0.046200
@<TRIPOS>BOND
     1     1     2 ar
     2     1     6 ar
     3     1     8 1
     4     2     3 ar
     5     3     4 ar
     6     4     5 ar
     7     5     6 ar
     8     6     7 1
     9     8     9 1
    10     9    10 1
    11     9    20 1
    12    10    11 1
    13    11    12 1
    14    12    13 1
    15    12    23 1
    16    13    14 1
    17    14    15 ar
    18    14    19 ar
    19    15    16 ar
    20    16    17 ar
    21    17    18 ar
    22    18    19 ar
    23    20    21 1
    24    21    22 1
    25    21    24 1
    26    23    25 1
    27    25    26 1
    28    25    27 1
    29     2    28 1
    30     3    29 1
    31     4    30 1
    32     5    31 1
    33     7    32 1
    34     8    33 1
    35     8    34 1
    36    10    35 1
    37    10    36 1
    38    11    37 1
    39    11    38 1
    40    13    39 1
    41    13    40 1
    42    15    41 1
    43    16    42 1
    44    17    43 1
    45    18    44 1
    46    19    45 1
    47    20    46 1
    48    20    47 1
    49    23    48 1
    50    23    49 1
@<TRIPOS>SUBSTRUCTURE
     1 BHZ         1 TEMP              0 ****  ****    0 ROOT
