@<TRIPOS>MOLECULE
BI1
   55    59     1     0     0
SMALL
bcc


@<TRIPOS>ATOM
      1 CBD          0.0000     0.0000     0.0000 c3         1 BI1       0.166100
      2 NBC          1.4690     0.0000     0.0000 n3         1 BI1      -0.521600
      3 CBE          1.8910     0.0000     1.4080 c3         1 BI1       0.166100
      4 CBB          1.8910    -1.2880    -0.5670 c3         1 BI1       0.142800
      5 CBA          3.4190    -1.3550    -0.5970 c3         1 BI1      -0.061400
      6 CAY          3.8590    -2.6970    -1.1870 c3         1 BI1      -0.044700
      7 NAH          5.3220    -2.7620    -1.2150 na         1 BI1       0.410600
      8 CAW          6.0980    -3.2470    -0.2080 cc         1 BI1      -0.220100
      9 CAE          6.1080    -2.3460    -2.2690 ca         1 BI1      -0.210200
     10 CAF          5.8200    -1.7810    -3.5050 ca         1 BI1      -0.100000
     11 CAA          6.8440    -1.4560    -4.3690 ca         1 BI1      -0.088000
     12 CAB          8.1660    -1.6820    -4.0150 ca         1 BI1      -0.128000
     13 CAC          8.4730    -2.2370    -2.7910 ca         1 BI1      -0.050000
     14 CAD          7.4480    -2.5700    -1.9080 ca         1 BI1      -0.072800
     15 CAG          7.4120    -3.1620    -0.5610 cd         1 BI1      -0.095200
     16 CAI          8.5700    -3.5800     0.2480 cd         1 BI1      -0.053200
     17 CAT          9.3290    -2.7520     1.2070 c          1 BI1       0.614700
     18 OAZ          9.1020    -1.5880     1.4730 o          1 BI1      -0.601500
     19 NAU         10.3070    -3.5010     1.7410 ns         1 BI1      -0.183500
     20 CAV         10.2840    -4.7440     1.2300 c          1 BI1       0.614700
     21 OAX         11.0470    -5.6440     1.5170 o          1 BI1      -0.600500
     22 CAJ          9.1710    -4.8330     0.2590 cc         1 BI1      -0.057200
     23 CAK          8.7830    -6.0100    -0.5330 cc         1 BI1      -0.093200
     24 CAM          7.8250    -7.0600    -0.1400 ca         1 BI1      -0.071800
     25 CAP          7.0350    -7.2730     0.9850 ca         1 BI1      -0.049000
     26 CAQ          6.2160    -8.3810     1.0450 ca         1 BI1      -0.128000
     27 CAR          6.1740    -9.2780    -0.0130 ca         1 BI1      -0.088000
     28 CAS          6.9470    -9.0750    -1.1360 ca         1 BI1      -0.099000
     29 CAN          7.7800    -7.9640    -1.2150 ca         1 BI1      -0.231200
     30 NAO          8.6480    -7.5020    -2.1820 na         1 BI1       0.369600
     31 CAL          9.2390    -6.3470    -1.7730 cd         1 BI1      -0.236100
     32 HBD1        -0.3610    -0.8320     0.5920 h1         1 BI1       0.005033
     33 HBD2        -0.3610    -0.0960    -1.0170 h1         1 BI1       0.005033
     34 HBD3        -0.3610     0.9290     0.4250 h1         1 BI1       0.005033
     35 HBE1         1.7270    -0.9820     1.8340 h1         1 BI1       0.005033
     36 HBE2         1.3150     0.7340     1.9580 h1         1 BI1       0.005033
     37 HBE3         2.9440     0.2490     1.4680 h1         1 BI1       0.005033
     38 HBB1         1.5060    -2.0960     0.0430 h1         1 BI1       0.011700
     39 HBB2         1.5060    -1.3820    -1.5760 h1         1 BI1       0.011700
     40 HBA1         3.8040    -0.5480    -1.2080 hc         1 BI1       0.037700
     41 HBA2         3.8040    -1.2600     0.4110 hc         1 BI1       0.037700
     42 HAY1         3.4740    -2.7920    -2.1950 h1         1 BI1       0.032700
     43 HAY2         3.4730    -3.5040    -0.5760 h1         1 BI1       0.032700
     44 HAW          5.7280    -3.6410     0.7300 h4         1 BI1       0.144000
     45 HAF          4.7910    -1.5990    -3.7920 ha         1 BI1       0.101000
     46 HAA          6.6140    -1.0190    -5.3330 ha         1 BI1       0.101000
     47 HAB          8.9600    -1.4210    -4.7040 ha         1 BI1       0.102000
     48 HAC          9.5060    -2.4130    -2.5170 ha         1 BI1       0.099000
     49 HAU         10.9660    -3.1770     2.4210 hn         1 BI1       0.200500
     50 HAP          7.0660    -6.5750     1.8130 ha         1 BI1       0.100000
     51 HAQ          5.6040    -8.5530     1.9220 ha         1 BI1       0.102000
     52 HAR          5.5280   -10.1450     0.0440 ha         1 BI1       0.101000
     53 HAS          6.9070    -9.7810    -1.9560 ha         1 BI1       0.099000
     54 HAO          8.8200    -7.9530    -3.0590 hn         1 BI1       0.114700
     55 HAL          9.9620    -5.7790    -2.3470 h4         1 BI1       0.144000
@<TRIPOS>BOND
     1     1     2 1   
     2     1    32 1   
     3     1    33 1   
     4     1    34 1   
     5     2     3 1   
     6     2     4 1   
     7     3    35 1   
     8     3    36 1   
     9     3    37 1   
    10     4     5 1   
    11     4    38 1   
    12     4    39 1   
    13     5     6 1   
    14     5    40 1   
    15     5    41 1   
    16     6     7 1   
    17     6    42 1   
    18     6    43 1   
    19     7     8 1   
    20     7     9 1   
    21     8    15 2   
    22     8    44 1   
    23     9    10 ar  
    24     9    14 ar  
    25    10    11 ar  
    26    10    45 1   
    27    11    12 ar  
    28    11    46 1   
    29    12    13 ar  
    30    12    47 1   
    31    13    14 ar  
    32    13    48 1   
    33    14    15 1   
    34    15    16 1   
    35    16    17 1   
    36    16    22 2   
    37    17    18 2   
    38    17    19 1   
    39    19    20 1   
    40    19    49 1   
    41    20    21 2   
    42    20    22 1   
    43    22    23 1   
    44    23    24 1   
    45    23    31 2   
    46    24    25 ar  
    47    24    29 ar  
    48    25    26 ar  
    49    25    50 1   
    50    26    27 ar  
    51    26    51 1   
    52    27    28 ar  
    53    27    52 1   
    54    28    29 ar  
    55    28    53 1   
    56    29    30 1   
    57    30    31 1   
    58    30    54 1   
    59    31    55 1   
@<TRIPOS>SUBSTRUCTURE
     1 BI1         1 TEMP              0 ****  ****    0 ROOT
