@<TRIPOS>MOLECULE
molecule
   59    64     1     0     0
SMALL
bcc


@<TRIPOS>ATOM
      1 CBD          0.0000     0.0000     0.0000 c3         1 BI2       0.119100
      2 NBC          1.4690     0.0000     0.0000 n3         1 BI2      -0.682600
      3 CBG          1.8920     0.0000     1.4120 c3         1 BI2       0.135800
      4 CBF          2.6340    -1.3290     1.6670 c3         1 BI2      -0.106400
      5 CBE          3.0850    -1.7550     0.2460 c3         1 BI2      -0.085400
      6 CBB          1.8940    -1.2720    -0.6190 c3         1 BI2       0.141500
      7 CBA          2.3410    -1.0420    -2.0630 c3         1 BI2      -0.087400
      8 CAY          1.1510    -0.5670    -2.8980 c3         1 BI2       0.044300
      9 NAH          1.5800    -0.3470    -4.2810 na         1 BI2      -0.061400
     10 CAW          1.5580    -1.2890    -5.2610 cc         1 BI2      -0.055100
     11 CAE          2.0590     0.8480    -4.7760 ca         1 BI2      -0.036200
     12 CAF          2.2820     2.0950    -4.2000 ca         1 BI2      -0.136000
     13 CAA          2.7880     3.1250    -4.9640 ca         1 BI2      -0.114000
     14 CAB          3.0830     2.9300    -6.3060 ca         1 BI2      -0.154000
     15 CAC          2.8730     1.7010    -6.8930 ca         1 BI2      -0.085000
     16 CAD          2.3630     0.6520    -6.1330 ca         1 BI2      -0.073800
     17 CAG          2.0230    -0.7520    -6.4250 cd         1 BI2      -0.121200
     18 CAI          2.1590    -1.4390    -7.7190 cd         1 BI2      -0.051200
     19 CAT          3.3410    -2.1740    -8.2150 c          1 BI2       0.694700
     20 OAZ          4.3870    -2.3230    -7.6130 o          1 BI2      -0.564500
     21 NAU          3.0650    -2.6580    -9.4370 ns         1 BI2      -0.595500
     22 CAV          1.8220    -2.3120    -9.8120 c          1 BI2       0.696700
     23 OAX          1.2940    -2.6000   -10.8670 o          1 BI2      -0.564500
     24 CAJ          1.2040    -1.5230    -8.7260 cc         1 BI2      -0.062200
     25 CAK         -0.1480    -0.9440    -8.7130 cc         1 BI2      -0.112200
     26 CAM         -1.3800    -1.5910    -8.2290 ca         1 BI2      -0.073800
     27 CAP         -1.6600    -2.8330    -7.6630 ca         1 BI2      -0.082000
     28 CAQ         -2.9540    -3.1410    -7.3000 ca         1 BI2      -0.154000
     29 CAR         -3.9720    -2.2180    -7.4880 ca         1 BI2      -0.111000
     30 CAS         -3.7070    -0.9840    -8.0400 ca         1 BI2      -0.140000
     31 CAN         -2.4090    -0.6540    -8.4140 ca         1 BI2      -0.040200
     32 NAO         -1.8480     0.4730    -8.9770 na         1 BI2      -0.174400
     33 CAL         -0.5090     0.2960    -9.1520 cd         1 BI2      -0.058100
     34 HBD1        -0.3610    -0.8010     0.6340 h1         1 BI2       0.034700
     35 HBD2        -0.3610     0.9490     0.3770 h1         1 BI2       0.034700
     36 HBD3        -0.3610    -0.1480    -1.0100 h1         1 BI2       0.034700
     37 HBG1         2.5590     0.8340     1.5970 h1         1 BI2       0.051200
     38 HBG2         1.0230     0.0650     2.0560 h1         1 BI2       0.051200
     39 HBF1         1.9620    -2.0660     2.0910 hc         1 BI2       0.050200
     40 HBF2         3.4930    -1.1690     2.3080 hc         1 BI2       0.050200
     41 HBE1         3.1960    -2.8300     0.1830 hc         1 BI2       0.056700
     42 HBE2         3.9980    -1.2450    -0.0370 hc         1 BI2       0.056700
     43 HBB          1.0870    -1.9940    -0.5790 h1         1 BI2       0.039700
     44 HBA1         3.1200    -0.2900    -2.0840 hc         1 BI2       0.062200
     45 HBA2         2.7230    -1.9690    -2.4740 hc         1 BI2       0.062200
     46 HAY1         0.3720    -1.3200    -2.8770 h1         1 BI2       0.064700
     47 HAY2         0.7690     0.3590    -2.4870 h1         1 BI2       0.064700
     48 HAW          1.2220    -2.3120    -5.1370 h4         1 BI2       0.171000
     49 HAF          2.0550     2.2570    -3.1530 ha         1 BI2       0.133000
     50 HAA          2.9560     4.0950    -4.5130 ha         1 BI2       0.130000
     51 HAB          3.4800     3.7480    -6.8950 ha         1 BI2       0.128000
     52 HAC          3.1040     1.5510    -7.9400 ha         1 BI2       0.128000
     53 HAU          3.7000    -3.1950    -9.9940 hn         1 BI2       0.353500
     54 HAP         -0.8670    -3.5560    -7.5150 ha         1 BI2       0.130000
     55 HAQ         -3.1760    -4.1070    -6.8650 ha         1 BI2       0.129000
     56 HAR         -4.9850    -2.4710    -7.1990 ha         1 BI2       0.130000
     57 HAS         -4.5100    -0.2710    -8.1820 ha         1 BI2       0.126000
     58 HAO         -2.3520     1.3020    -9.2220 hn         1 BI2       0.299700
     59 HAL          0.1670     1.0280    -9.5760 h4         1 BI2       0.173000
@<TRIPOS>BOND
     1     1     2 1
     2     1    34 1
     3     1    35 1
     4     1    36 1
     5     2     3 1
     6     2     6 1
     7     3     4 1
     8     3    37 1
     9     3    38 1
    10     4     5 1
    11     4    39 1
    12     4    40 1
    13     5     6 1
    14     5    41 1
    15     5    42 1
    16     6     7 1
    17     6    43 1
    18     7     8 1
    19     7    44 1
    20     7    45 1
    21     8     9 1
    22     8    46 1
    23     8    47 1
    24     9    10 1
    25     9    11 1
    26    10    17 2
    27    10    48 1
    28    11    12 ar
    29    11    16 ar
    30    12    13 ar
    31    12    49 1
    32    13    14 ar
    33    13    50 1
    34    14    15 ar
    35    14    51 1
    36    15    16 ar
    37    15    52 1
    38    16    17 1
    39    17    18 1
    40    18    19 1
    41    18    24 2
    42    19    20 2
    43    19    21 1
    44    21    22 1
    45    21    53 1
    46    22    23 2
    47    22    24 1
    48    24    25 1
    49    25    26 1
    50    25    33 2
    51    26    27 ar
    52    26    31 ar
    53    27    28 ar
    54    27    54 1
    55    28    29 ar
    56    28    55 1
    57    29    30 ar
    58    29    56 1
    59    30    31 ar
    60    30    57 1
    61    31    32 1
    62    32    33 1
    63    32    58 1
    64    33    59 1
@<TRIPOS>SUBSTRUCTURE
     1 BI2         1 TEMP              0 ****  ****    0 ROOT
