@<TRIPOS>MOLECULE
BI3
   50    54     1     0     0
SMALL
bcc


@<TRIPOS>ATOM
      1 NBC          0.0000     0.0000     0.0000 nz         1 BI3       0.087400
      2 CBB          1.4690     0.0000     0.0000 c3         1 BI3      -0.048200
      3 CBA          1.9790     0.0000     1.4430 c3         1 BI3      -0.066400
      4 CAY          3.5090     0.0010     1.4430 c3         1 BI3      -0.014700
      5 NAH          3.9970    -0.0010     2.8230 na         1 BI3       0.371600
      6 CAW          4.2570    -1.1160     3.5570 cc         1 BI3      -0.249100
      7 CAE          4.2650     1.1320     3.5640 ca         1 BI3      -0.188200
      8 CAF          4.1640     2.4910     3.2930 ca         1 BI3      -0.147000
      9 CAA          4.5060     3.4130     4.2590 ca         1 BI3      -0.088000
     10 CAB          4.9480     2.9980     5.5060 ca         1 BI3      -0.140000
     11 CAC          5.0510     1.6550     5.7960 ca         1 BI3      -0.035000
     12 CAD          4.7080     0.7120     4.8290 ca         1 BI3      -0.053800
     13 CAG          4.6970    -0.7590     4.7960 cd         1 BI3      -0.029200
     14 CAI          5.0830    -1.6680     5.8880 cd         1 BI3      -0.108200
     15 CAT          4.2050    -2.2110     6.9450 c          1 BI3       0.625700
     16 OAZ          3.0180    -1.9870     7.0650 o          1 BI3      -0.616500
     17 NAU          4.9370    -3.0030     7.7470 ns         1 BI3      -0.175500
     18 CAV          6.2160    -3.0350     7.3380 c          1 BI3       0.604700
     19 OAX          7.1150    -3.6590     7.8670 o          1 BI3      -0.577500
     20 CAJ          6.3500    -2.1830     6.1370 cc         1 BI3      -0.010200
     21 CAK          7.5760    -1.9330     5.3620 cc         1 BI3      -0.120200
     22 CAM          8.0700    -2.7150     4.2160 ca         1 BI3      -0.050800
     23 CAP          7.5950    -3.8310     3.5330 ca         1 BI3      -0.068000
     24 CAQ          8.3080    -4.3330     2.4650 ca         1 BI3      -0.141000
     25 CAR          9.4900    -3.7250     2.0660 ca         1 BI3      -0.096000
     26 CAS          9.9670    -2.6170     2.7300 ca         1 BI3      -0.094000
     27 CAN          9.2630    -2.0960     3.8100 ca         1 BI3      -0.224200
     28 NAO          9.4820    -1.0250     4.6510 na         1 BI3       0.375600
     29 CAL          8.4800    -0.9330     5.5680 cd         1 BI3      -0.228100
     30 HBC1        -0.3340    -0.8170     0.4720 hn         1 BI3       0.224800
     31 HBC2        -0.3340    -0.0010    -0.9440 hn         1 BI3       0.224800
     32 HBB1         1.8300     0.8850    -0.5110 hx         1 BI3       0.085200
     33 HBB2         1.8300    -0.8850    -0.5110 hx         1 BI3       0.085200
     34 HBA1         1.6180    -0.8850     1.9540 hc         1 BI3       0.046200
     35 HBA2         1.6170     0.8840     1.9540 hc         1 BI3       0.046200
     36 HAY1         3.8690     0.8870     0.9330 h1         1 BI3       0.040700
     37 HAY2         3.8700    -0.8820     0.9300 h1         1 BI3       0.040700
     38 HAW          4.1330    -2.1340     3.2080 h4         1 BI3       0.147000
     39 HAF          3.9600     3.0940     2.4160 ha         1 BI3       0.109000
     40 HAA          4.4390     4.4810     4.0900 ha         1 BI3       0.107000
     41 HAB          5.2110     3.7530     6.2370 ha         1 BI3       0.113000
     42 HAC          5.3140     1.5870     6.8450 ha         1 BI3       0.116000
     43 HAU          4.5800    -3.4940     8.5430 hn         1 BI3       0.206500
     44 HAP          6.8110    -4.5510     3.7390 ha         1 BI3       0.106000
     45 HAQ          7.9570    -5.1870     1.9000 ha         1 BI3       0.103000
     46 HAR         10.0330    -4.1390     1.2250 ha         1 BI3       0.105000
     47 HAS         10.8950    -2.2110     2.3460 ha         1 BI3       0.106000
     48 HAO         10.2650    -0.4040     4.5950 hn         1 BI3       0.119700
     49 HAL          8.4120    -0.1810     6.3440 h4         1 BI3       0.145000
     50 HBC3        -0.3340     0.8250     0.4570 hn         1 BI3       0.224800
@<TRIPOS>BOND
     1     1     2 1   
     2     1    30 1   
     3     1    31 1   
     4     1    50 1   
     5     2     3 1   
     6     2    32 1   
     7     2    33 1   
     8     3     4 1   
     9     3    34 1   
    10     3    35 1   
    11     4     5 1   
    12     4    36 1   
    13     4    37 1   
    14     5     6 1   
    15     5     7 1   
    16     6    13 2   
    17     6    38 1   
    18     7     8 ar  
    19     7    12 ar  
    20     8     9 ar  
    21     8    39 1   
    22     9    10 ar  
    23     9    40 1   
    24    10    11 ar  
    25    10    41 1   
    26    11    12 ar  
    27    11    42 1   
    28    12    13 1   
    29    13    14 1   
    30    14    15 1   
    31    14    20 2   
    32    15    16 2   
    33    15    17 1   
    34    17    18 1   
    35    17    43 1   
    36    18    19 2   
    37    18    20 1   
    38    20    21 1   
    39    21    22 1   
    40    21    29 2   
    41    22    23 ar  
    42    22    27 ar  
    43    23    24 ar  
    44    23    44 1   
    45    24    25 ar  
    46    24    45 1   
    47    25    26 ar  
    48    25    46 1   
    49    26    27 ar  
    50    26    47 1   
    51    27    28 1   
    52    28    29 1   
    53    28    48 1   
    54    29    49 1   
@<TRIPOS>SUBSTRUCTURE
     1 BI3         1 TEMP              0 ****  ****    0 ROOT
