@<TRIPOS>MOLECULE
molecule
   50    54     1     0     0
SMALL
bcc


@<TRIPOS>ATOM
      1 NBC          0.0000     0.0000     0.0000 nz         1 BI3      -0.809600
      2 CBB          1.4690     0.0000     0.0000 c3         1 BI3       0.091800
      3 CBA          1.9790     0.0000     1.4430 c3         1 BI3      -0.142400
      4 CAY          3.5090     0.0010     1.4430 c3         1 BI3       0.072300
      5 NAH          3.9970    -0.0010     2.8230 na         1 BI3      -0.083400
      6 CAW          4.2570    -1.1160     3.5570 cc         1 BI3      -0.085100
      7 CAE          4.2650     1.1320     3.5640 ca         1 BI3      -0.023200
      8 CAF          4.1640     2.4910     3.2930 ca         1 BI3      -0.177000
      9 CAA          4.5060     3.4130     4.2590 ca         1 BI3      -0.113000
     10 CAB          4.9480     2.9980     5.5060 ca         1 BI3      -0.162000
     11 CAC          5.0510     1.6550     5.7960 ca         1 BI3      -0.073000
     12 CAD          4.7080     0.7120     4.8290 ca         1 BI3      -0.054800
     13 CAG          4.6970    -0.7590     4.7960 cd         1 BI3      -0.059200
     14 CAI          5.0830    -1.6680     5.8880 cd         1 BI3      -0.100200
     15 CAT          4.2050    -2.2110     6.9450 c          1 BI3       0.704700
     16 OAZ          3.0180    -1.9870     7.0650 o          1 BI3      -0.575500
     17 NAU          4.9370    -3.0030     7.7470 ns         1 BI3      -0.590500
     18 CAV          6.2160    -3.0350     7.3380 c          1 BI3       0.689700
     19 OAX          7.1150    -3.6590     7.8670 o          1 BI3      -0.541500
     20 CAJ          6.3500    -2.1830     6.1370 cc         1 BI3      -0.020200
     21 CAK          7.5760    -1.9330     5.3620 cc         1 BI3      -0.135200
     22 CAM          8.0700    -2.7150     4.2160 ca         1 BI3      -0.056800
     23 CAP          7.5950    -3.8310     3.5330 ca         1 BI3      -0.098000
     24 CAQ          8.3080    -4.3330     2.4650 ca         1 BI3      -0.165000
     25 CAR          9.4900    -3.7250     2.0660 ca         1 BI3      -0.117000
     26 CAS          9.9670    -2.6170     2.7300 ca         1 BI3      -0.136000
     27 CAN          9.2630    -2.0960     3.8100 ca         1 BI3      -0.032200
     28 NAO          9.4820    -1.0250     4.6510 na         1 BI3      -0.169400
     29 CAL          8.4800    -0.9330     5.5680 cd         1 BI3      -0.050100
     30 HBC1        -0.3340    -0.8170     0.4720 hn         1 BI3       0.459133
     31 HBC2        -0.3340    -0.0010    -0.9440 hn         1 BI3       0.459133
     32 HBB1         1.8300     0.8850    -0.5110 hx         1 BI3       0.111700
     33 HBB2         1.8300    -0.8850    -0.5110 hx         1 BI3       0.111700
     34 HBA1         1.6180    -0.8850     1.9540 hc         1 BI3       0.079700
     35 HBA2         1.6170     0.8840     1.9540 hc         1 BI3       0.079700
     36 HAY1         3.8690     0.8870     0.9330 h1         1 BI3       0.071700
     37 HAY2         3.8700    -0.8820     0.9300 h1         1 BI3       0.071700
     38 HAW          4.1330    -2.1340     3.2080 h4         1 BI3       0.174000
     39 HAF          3.9600     3.0940     2.4160 ha         1 BI3       0.131000
     40 HAA          4.4390     4.4810     4.0900 ha         1 BI3       0.137000
     41 HAB          5.2110     3.7530     6.2370 ha         1 BI3       0.141000
     42 HAC          5.3140     1.5870     6.8450 ha         1 BI3       0.149000
     43 HAU          4.5800    -3.4940     8.5430 hn         1 BI3       0.361500
     44 HAP          6.8110    -4.5510     3.7390 ha         1 BI3       0.134000
     45 HAQ          7.9570    -5.1870     1.9000 ha         1 BI3       0.130000
     46 HAR         10.0330    -4.1390     1.2250 ha         1 BI3       0.135000
     47 HAS         10.8950    -2.2110     2.3460 ha         1 BI3       0.134000
     48 HAO         10.2650    -0.4040     4.5950 hn         1 BI3       0.306700
     49 HAL          8.4120    -0.1810     6.3440 h4         1 BI3       0.175000
     50 HBC3        -0.3340     0.8250     0.4570 hn         1 BI3       0.459133
@<TRIPOS>BOND
     1     1     2 1
     2     1    30 1
     3     1    31 1
     4     2     3 1
     5     2    32 1
     6     2    33 1
     7     3     4 1
     8     3    34 1
     9     3    35 1
    10     4     5 1
    11     4    36 1
    12     4    37 1
    13     5     6 1
    14     5     7 1
    15     6    13 2
    16     6    38 1
    17     7     8 ar
    18     7    12 ar
    19     8     9 ar
    20     8    39 1
    21     9    10 ar
    22     9    40 1
    23    10    11 ar
    24    10    41 1
    25    11    12 ar
    26    11    42 1
    27    12    13 1
    28    13    14 1
    29    14    15 1
    30    14    20 2
    31    15    16 2
    32    15    17 1
    33    17    18 1
    34    17    43 1
    35    18    19 2
    36    18    20 1
    37    20    21 1
    38    21    22 1
    39    21    29 2
    40    22    23 ar
    41    22    27 ar
    42    23    24 ar
    43    23    44 1
    44    24    25 ar
    45    24    45 1
    46    25    26 ar
    47    25    46 1
    48    26    27 ar
    49    26    47 1
    50    27    28 1
    51    28    29 1
    52    28    48 1
    53    29    49 1
    54    50     1 1
@<TRIPOS>SUBSTRUCTURE
     1 BI3         1 TEMP              0 ****  ****    0 ROOT
