@<TRIPOS>MOLECULE
BI4
   59    64     1     0     0
SMALL
bcc


@<TRIPOS>ATOM
      1 O32          0.0000     0.0000     0.0000 o          1 BI4      -0.600500
      2 C18          1.2140     0.0000     0.0000 c          1 BI4       0.615700
      3 C17          2.0770     0.0000     1.2000 cc         1 BI4      -0.058200
      4 C16          1.6370    -0.0010     2.6060 cc         1 BI4      -0.096200
      5 C15          1.0780    -1.1410     3.3530 ca         1 BI4      -0.071800
      6 C14          0.8130    -2.4700     3.0320 ca         1 BI4      -0.047000
      7 C13          0.2790    -3.3090     3.9860 ca         1 BI4      -0.126000
      8 C12          0.0130    -2.8370     5.2630 ca         1 BI4      -0.087000
      9 C10          0.8140    -0.6640     4.6480 ca         1 BI4      -0.232200
     10 C11          0.2760    -1.5260     5.5960 ca         1 BI4      -0.098000
     11 N9           1.1770     0.6670     4.6800 na         1 BI4       0.369600
     12 C8           1.6630     1.0540     3.4700 cd         1 BI4      -0.238100
     13 N19          1.9980     0.0010    -1.0920 ns         1 BI4      -0.185500
     14 C20          3.2960     0.0070    -0.7410 c          1 BI4       0.615700
     15 O33          4.2380     0.0100    -1.5090 o          1 BI4      -0.601500
     16 C21          3.3870     0.0020     0.7340 cd         1 BI4      -0.057200
     17 C22          4.6150     0.0020     1.5450 cd         1 BI4      -0.096200
     18 C7           5.1410    -1.0530     2.2310 cc         1 BI4      -0.219100
     19 C23          5.5180     1.1440     1.7760 ca         1 BI4      -0.072800
     20 C5           6.5410     0.6650     2.6110 ca         1 BI4      -0.212200
     21 C4           7.5600     1.5260     3.0030 ca         1 BI4      -0.103000
     22 C3           7.5540     2.8370     2.5790 ca         1 BI4      -0.088000
     23 C2           6.5400     3.3100     1.7580 ca         1 BI4      -0.128000
     24 C1           5.5240     2.4720     1.3550 ca         1 BI4      -0.046000
     25 N6           6.2840    -0.6670     2.8610 na         1 BI4       0.410600
     26 C24          7.1170    -1.5390     3.6910 c3         1 BI4      -0.049700
     27 C25          6.7210    -1.3760     5.1610 c3         1 BI4      -0.044400
     28 C26          7.6730    -2.1900     6.0400 c3         1 BI4       0.117500
     29 C27          7.5100    -3.7050     5.7640 c3         1 BI4      -0.032400
     30 C28          8.0140    -4.3510     7.0750 c3         1 BI4      -0.033400
     31 C29          7.8810    -3.2490     8.1430 c3         1 BI4       0.142800
     32 N30          7.3060    -2.0620     7.4730 n3         1 BI4      -0.524600
     33 C31          8.0260    -0.8930     7.9920 c3         1 BI4       0.170100
     34 H14          1.0200    -2.8410     2.0350 ha         1 BI4       0.101000
     35 H13          0.0670    -4.3420     3.7380 ha         1 BI4       0.103000
     36 H12         -0.4070    -3.5050     6.0050 ha         1 BI4       0.101000
     37 H11          0.0650    -1.1680     6.5960 ha         1 BI4       0.099000
     38 HN9          1.0950     1.2630     5.4800 hn         1 BI4       0.114700
     39 H8           2.0160     2.0490     3.2280 h4         1 BI4       0.145000
     40 H19          1.6620    -0.0020    -2.0350 hn         1 BI4       0.200500
     41 H7           4.7150    -2.0490     2.2660 h4         1 BI4       0.146000
     42 H4           8.3570     1.1670     3.6440 ha         1 BI4       0.099000
     43 H3           8.3480     3.5050     2.8890 ha         1 BI4       0.100000
     44 H2           6.5480     4.3430     1.4320 ha         1 BI4       0.103000
     45 H1           4.7340     2.8440     0.7140 ha         1 BI4       0.101000
     46 H241         8.1590    -1.2700     3.5660 h1         1 BI4       0.035700
     47 H242         6.9720    -2.5700     3.3910 h1         1 BI4       0.035700
     48 H251         5.7070    -1.7290     5.3030 hc         1 BI4       0.035200
     49 H252         6.7810    -0.3300     5.4360 hc         1 BI4       0.035200
     50 H26          8.7000    -1.8850     5.8830 h1         1 BI4       0.023700
     51 H271         6.4690    -3.9520     5.5930 hc         1 BI4       0.024200
     52 H272         8.1260    -4.0090     4.9270 hc         1 BI4       0.024200
     53 H281         7.3960    -5.2010     7.3350 hc         1 BI4       0.018200
     54 H282         9.0500    -4.6490     6.9710 hc         1 BI4       0.018200
     55 H291         8.8580    -3.0070     8.5460 h1         1 BI4       0.016700
     56 H292         7.2210    -3.5810     8.9350 h1         1 BI4       0.016700
     57 H311         7.6100     0.0080     7.5590 h1         1 BI4       0.004033
     58 H312         9.0740    -0.9690     7.7290 h1         1 BI4       0.004033
     59 H313         7.9260    -0.8560     9.0700 h1         1 BI4       0.004033
@<TRIPOS>BOND
     1     1     2 2   
     2     2     3 1   
     3     2    13 1   
     4     3     4 1   
     5     3    16 2   
     6     4     5 1   
     7     4    12 2   
     8     5     6 ar  
     9     5     9 ar  
    10     6     7 ar  
    11     6    34 1   
    12     7     8 ar  
    13     7    35 1   
    14     8    10 ar  
    15     8    36 1   
    16     9    10 ar  
    17     9    11 1   
    18    10    37 1   
    19    11    12 1   
    20    11    38 1   
    21    12    39 1   
    22    13    14 1   
    23    13    40 1   
    24    14    15 2   
    25    14    16 1   
    26    16    17 1   
    27    17    18 2   
    28    17    19 1   
    29    18    25 1   
    30    18    41 1   
    31    19    20 ar  
    32    19    24 ar  
    33    20    21 ar  
    34    20    25 1   
    35    21    22 ar  
    36    21    42 1   
    37    22    23 ar  
    38    22    43 1   
    39    23    24 ar  
    40    23    44 1   
    41    24    45 1   
    42    25    26 1   
    43    26    27 1   
    44    26    46 1   
    45    26    47 1   
    46    27    28 1   
    47    27    48 1   
    48    27    49 1   
    49    28    29 1   
    50    28    32 1   
    51    28    50 1   
    52    29    30 1   
    53    29    51 1   
    54    29    52 1   
    55    30    31 1   
    56    30    53 1   
    57    30    54 1   
    58    31    32 1   
    59    31    55 1   
    60    31    56 1   
    61    32    33 1   
    62    33    57 1   
    63    33    58 1   
    64    33    59 1   
@<TRIPOS>SUBSTRUCTURE
     1 BI4         1 TEMP              0 ****  ****    0 ROOT
