@<TRIPOS>MOLECULE
molecule
   39    41     1     0     0
SMALL
bcc


@<TRIPOS>ATOM
      1 N1           0.0000     0.0000     0.0000 nb         1 BI5      -0.680000
      2 C1           1.3180     0.0000     0.0000 ca         1 BI5       0.392600
      3 C2           2.0260     0.0000     1.1870 ca         1 BI5      -0.235300
      4 C3           1.3310    -0.0070     2.3870 ca         1 BI5      -0.095000
      5 C4          -0.0550    -0.0120     2.3470 ca         1 BI5      -0.247300
      6 C5          -0.6930    -0.0110     1.1220 ca         1 BI5       0.419200
      7 C6           2.0630     0.0060    -1.3110 c3         1 BI5       0.071700
      8 N2           2.2060    -1.3680    -1.7980 ns         1 BI5      -0.578900
      9 C7           2.8430    -1.6060    -2.9620 c          1 BI5       0.674700
     10 C8           2.9820    -2.9900    -3.4560 ca         1 BI5      -0.149600
     11 C9           3.6370    -3.2390    -4.6650 ca         1 BI5      -0.079000
     12 C10          3.7630    -4.5320    -5.1230 ca         1 BI5      -0.150000
     13 C11          3.2400    -5.5880    -4.3850 ca         1 BI5       0.108100
     14 C12          2.5890    -5.3440    -3.1820 ca         1 BI5      -0.150000
     15 C13          2.4620    -4.0540    -2.7140 ca         1 BI5      -0.079000
     16 O1           3.3680    -6.8600    -4.8400 os         1 BI5      -0.221200
     17 C14          2.2690    -7.1180    -5.5970 ca         1 BI5       0.109100
     18 C15          2.0990    -8.3690    -6.1700 ca         1 BI5      -0.179500
     19 C16          0.9810    -8.6290    -6.9390 ca         1 BI5      -0.095000
     20 C17          0.0320    -7.6440    -7.1370 ca         1 BI5      -0.158000
     21 C18          0.1990    -6.3960    -6.5660 ca         1 BI5      -0.095000
     22 C19          1.3120    -6.1320    -5.7910 ca         1 BI5      -0.179500
     23 O2           3.2990    -0.6820    -3.6060 o          1 BI5      -0.607100
     24 H2           3.1090     0.0020     1.1810 ha         1 BI5       0.144000
     25 H3           1.8580    -0.0070     3.3330 ha         1 BI5       0.141000
     26 H4          -0.6300    -0.0190     3.2650 ha         1 BI5       0.141000
     27 H5          -1.7760    -0.0130     1.0820 h4         1 BI5       0.027100
     28 H61          3.0440     0.4430    -1.1660 h1         1 BI5       0.069200
     29 H62          1.5110     0.5910    -2.0360 h1         1 BI5       0.069200
     30 HN2          1.8110    -2.1270    -1.2790 hn         1 BI5       0.319500
     31 H9           4.0450    -2.4170    -5.2410 ha         1 BI5       0.148000
     32 H10          4.2710    -4.7260    -6.0600 ha         1 BI5       0.151000
     33 H12          2.1850    -6.1690    -2.6090 ha         1 BI5       0.151000
     34 H13          1.9540    -3.8650    -1.7760 ha         1 BI5       0.148000
     35 H15          2.8430    -9.1420    -6.0160 ha         1 BI5       0.147000
     36 H16          0.8490    -9.6070    -7.3870 ha         1 BI5       0.134000
     37 H17         -0.8430    -7.8490    -7.7420 ha         1 BI5       0.131000
     38 H18         -0.5470    -5.6260    -6.7210 ha         1 BI5       0.134000
     39 H19          1.4430    -5.1540    -5.3440 ha         1 BI5       0.147000
@<TRIPOS>BOND
     1     1     2 ar
     2     1     6 ar
     3     2     3 ar
     4     2     7 1
     5     3     4 ar
     6     3    24 1
     7     4     5 ar
     8     4    25 1
     9     5     6 ar
    10     5    26 1
    11     6    27 1
    12     7     8 1
    13     7    28 1
    14     7    29 1
    15     8     9 1
    16     8    30 1
    17     9    10 1
    18     9    23 2
    19    10    11 ar
    20    10    15 ar
    21    11    12 ar
    22    11    31 1
    23    12    13 ar
    24    12    32 1
    25    13    14 ar
    26    13    16 1
    27    14    15 ar
    28    14    33 1
    29    15    34 1
    30    16    17 1
    31    17    18 ar
    32    17    22 ar
    33    18    19 ar
    34    18    35 1
    35    19    20 ar
    36    19    36 1
    37    20    21 ar
    38    20    37 1
    39    21    22 ar
    40    21    38 1
    41    22    39 1
@<TRIPOS>SUBSTRUCTURE
     1 BI5         1 TEMP              0 ****  ****    0 ROOT
