@<TRIPOS>MOLECULE
molecule
   70    73     1     0     0
SMALL
bcc


@<TRIPOS>ATOM
      1 C49          0.0000     0.0000     0.0000 c3         1 BI6      -0.044200
      2 C9           1.6060     0.0000     0.0000 c3         1 BI6      -0.067400
      3 C10          2.4900     0.0000     1.3700 c3         1 BI6       0.140700
      4 N3           1.8260    -0.0090     2.7860 n          1 BI6      -0.502800
      5 C6           0.9170    -0.9830     3.3090 c          1 BI6       0.695500
      6 C5           0.3630    -2.2730     2.5890 c3         1 BI6       0.094900
      7 N2          -0.2820    -3.3090     3.3360 ns         1 BI6      -0.515900
      8 C4           0.0550    -4.5910     2.9400 c          1 BI6       0.627100
      9 C1          -0.5480    -5.7490     3.6700 c3         1 BI6       0.101500
     10 C2           0.5540    -6.4380     4.5480 c3         1 BI6      -0.057400
     11 C3           1.1320    -5.5130     5.6550 c3         1 BI6      -0.093100
     12 N1          -1.1070    -6.6430     2.6410 n2         1 BI6      -0.647900
     13 O1           0.8540    -4.8510     1.9970 o          1 BI6      -0.592100
     14 C7          -0.4490    -1.9630     1.4430 c2         1 BI6      -0.276200
     15 C8          -0.7480    -0.8760     0.9140 c2         1 BI6      -0.121200
     16 O2           0.4590    -0.8470     4.4900 o          1 BI6      -0.685500
     17 C13          2.1640     1.1280     3.6900 c3         1 BI6       0.016700
     18 C14          1.1250     2.2650     3.6390 c          1 BI6       0.689100
     19 O3           0.1510     2.1170     2.9030 o          1 BI6      -0.510100
     20 N4           1.0600     2.4030     5.0490 ns         1 BI6      -0.632900
     21 C15          0.1500     3.5100     5.5280 c3         1 BI6       0.200300
     22 C17          0.5340     4.9940     5.0120 ca         1 BI6      -0.098800
     23 C18         -0.5290     6.0350     4.8930 ca         1 BI6      -0.121000
     24 C26         -2.2490    -6.6060     1.8300 c2         1 BI6       0.456100
     25 C19         -0.1870     7.3700     4.4330 ca         1 BI6      -0.133250
     26 C20          1.1710     7.7140     4.0850 ca         1 BI6      -0.132000
     27 C21          2.2260     6.7140     4.1950 ca         1 BI6      -0.133250
     28 C22          1.9140     5.3650     4.6550 ca         1 BI6      -0.121000
     29 C16          0.1570     3.5130     7.0870 ca         1 BI6      -0.098800
     30 C23          0.4830     4.6500     7.9680 ca         1 BI6      -0.121000
     31 C24          0.4440     4.5170     9.3820 ca         1 BI6      -0.133250
     32 C25          0.0780     3.2580     9.9600 ca         1 BI6      -0.132000
     33 C27         -0.2010     2.2670     7.7000 ca         1 BI6      -0.121000
     34 C28         -0.2470     2.1260     9.1190 ca         1 BI6      -0.133250
     35 C12          3.5770     1.1520     3.2840 c3         1 BI6      -0.066400
     36 C11          3.3730     1.1410     1.6590 c3         1 BI6      -0.103400
     37 H491        -0.3170    -0.2480    -1.0060 hc         1 BI6       0.060700
     38 H492        -0.3170     1.0160     0.2040 hc         1 BI6       0.060700
     39 H91C         1.8600     0.9440    -0.4670 hc         1 BI6       0.058200
     40 H92C         1.8600    -0.9440    -0.4670 hc         1 BI6       0.058200
     41 H8          -1.7340    -0.5110     1.1730 ha         1 BI6       0.135000
     42 H10          3.1210    -0.8790     1.3180 h1         1 BI6       0.050700
     43 H111         4.3280     1.0070     1.1660 hc         1 BI6       0.056200
     44 H112         2.9060     2.0640     1.3370 hc         1 BI6       0.056200
     45 H13          2.1440     0.7450     4.7030 h1         1 BI6       0.095700
     46 H5           1.2480    -2.7440     2.1780 h1         1 BI6       0.087700
     47 H2          -1.1660    -3.1360     3.7710 hn         1 BI6       0.329500
     48 H7          -0.8780    -2.8290     0.9530 ha         1 BI6       0.146000
     49 H1          -1.3480    -5.3940     4.3090 h1         1 BI6       0.037700
     50 H21C         1.3640    -6.7530     3.9020 hc         1 BI6       0.060200
     51 H22C         0.1240    -7.3130     5.0190 hc         1 BI6       0.060200
     52 H31C         0.3220    -4.9880     6.1470 hc         1 BI6       0.039700
     53 H32C         1.6690    -6.1110     6.3810 hc         1 BI6       0.039700
     54 H33C         1.8090    -4.7950     5.2070 hc         1 BI6       0.039700
     55 H261        -2.4430    -7.4100     1.1300 h4         1 BI6      -0.008700
     56 H262        -2.9380    -5.7730     1.9020 h4         1 BI6      -0.008700
     57 H121         4.0660     2.0600     3.6140 hc         1 BI6       0.063200
     58 H122         4.0980     0.2640     3.6220 hc         1 BI6       0.063200
     59 H4           1.2420     1.6150     5.6380 hn         1 BI6       0.362500
     60 H15         -0.8570     3.2870     5.1940 h1         1 BI6       0.069700
     61 H18         -1.5540     5.7960     5.1500 ha         1 BI6       0.139500
     62 H22          2.7040     4.6280     4.7340 ha         1 BI6       0.139500
     63 H19         -0.9650     8.1200     4.3490 ha         1 BI6       0.135000
     64 H20          1.4060     8.7140     3.7430 ha         1 BI6       0.131500
     65 H21          3.2450     6.9740     3.9340 ha         1 BI6       0.135000
     66 H23          0.7600     5.6020     7.5300 ha         1 BI6       0.139500
     67 H27         -0.4450     1.4180     7.0730 ha         1 BI6       0.139500
     68 H24          0.6850     5.3610    10.0170 ha         1 BI6       0.135000
     69 H25          0.0450     3.1530    11.0380 ha         1 BI6       0.131500
     70 H28         -0.5210     1.1770     9.5640 ha         1 BI6       0.135000
@<TRIPOS>BOND
     1     1     2 1
     2     1    15 1
     3     2     3 1
     4     3     4 1
     5     3    36 1
     6     4     5 1
     7     4    17 1
     8     5     6 1
     9     5    16 2
    10     6     7 1
    11     6    14 1
    12     7     8 1
    13     8     9 1
    14     8    13 2
    15     9    10 1
    16     9    12 1
    17    10    11 1
    18    12    24 2
    19    14    15 2
    20    17    18 1
    21    17    35 1
    22    18    19 2
    23    18    20 1
    24    20    21 1
    25    21    22 1
    26    21    29 1
    27    22    23 ar
    28    22    28 ar
    29    23    25 ar
    30    25    26 ar
    31    26    27 ar
    32    27    28 ar
    33    29    30 ar
    34    29    33 ar
    35    30    31 ar
    36    31    32 ar
    37    32    34 ar
    38    33    34 ar
    39    35    36 1
    40     1    37 1
    41     1    38 1
    42     2    39 1
    43     2    40 1
    44    15    41 1
    45     3    42 1
    46    36    43 1
    47    36    44 1
    48    17    45 1
    49     6    46 1
    50     7    47 1
    51    14    48 1
    52     9    49 1
    53    10    50 1
    54    10    51 1
    55    11    52 1
    56    11    53 1
    57    11    54 1
    58    24    55 1
    59    24    56 1
    60    35    57 1
    61    35    58 1
    62    20    59 1
    63    21    60 1
    64    23    61 1
    65    28    62 1
    66    25    63 1
    67    26    64 1
    68    27    65 1
    69    30    66 1
    70    33    67 1
    71    31    68 1
    72    32    69 1
    73    34    70 1
@<TRIPOS>SUBSTRUCTURE
     1 BI6         1 TEMP              0 ****  ****    0 ROOT
