@<TRIPOS>MOLECULE
molecule
   53    57     1     0     0
SMALL
bcc


@<TRIPOS>ATOM
      1 CB0          0.0000     0.0000     0.0000 c3         1 BI8       0.036600
      2 NBC          7.7940    -8.3640     1.7810 nz         1 BI8      -0.809600
      3 CBB          6.7670    -7.6100     1.0490 c3         1 BI8       0.091800
      4 CBA          6.2680    -6.4520     1.9170 c3         1 BI8      -0.143400
      5 NAH          4.7230    -4.5590     1.9840 na         1 BI8      -0.082400
      6 CAW          5.2600    -3.3090     1.9980 cc         1 BI8      -0.085100
      7 CAE          3.6640    -4.6330     2.8650 ca         1 BI8      -0.046200
      8 CAF          2.7950    -5.6580     3.2240 ca         1 BI8      -0.158000
      9 CAA          1.8090    -5.4290     4.1590 ca         1 BI8      -0.094000
     10 CAB          1.6720    -4.1810     4.7500 ca         1 BI8      -0.143000
     11 CAC          2.5240    -3.1520     4.4090 ca         1 BI8      -0.068000
     12 CAD          3.5290    -3.3720     3.4700 ca         1 BI8      -0.071800
     13 CAG          4.5790    -2.5250     2.8800 cd         1 BI8      -0.059200
     14 CAI          4.8460    -1.1110     3.1890 cd         1 BI8      -0.104200
     15 CAT          5.7460    -0.5850     4.2350 c          1 BI8       0.703700
     16 OAZ          6.4080    -1.2530     5.0040 o          1 BI8      -0.575500
     17 NAU          5.7120     0.7580     4.1950 ns         1 BI8      -0.591500
     18 CAV          4.8850     1.1810     3.2240 c          1 BI8       0.689700
     19 OAX          4.6500     2.3400     2.9480 o          1 BI8      -0.539500
     20 CAJ          4.3020    -0.0000     2.5550 cc         1 BI8      -0.018200
     21 CAK          3.3420     0.0000     1.4380 cc         1 BI8      -0.140200
     22 CAM          3.6630     0.0000     0.0000 ca         1 BI8      -0.073800
     23 CAP          4.8530    -0.0010    -0.7240 ca         1 BI8      -0.091000
     24 CAQ          4.8130    -0.0020    -2.1010 ca         1 BI8      -0.151000
     25 CAR          3.5950    -0.0020    -2.7660 ca         1 BI8      -0.110000
     26 CAS          2.4110    -0.0010    -2.0630 ca         1 BI8      -0.132000
     27 CAN          2.4300    -0.0050    -0.6720 ca         1 BI8      -0.038200
     28 NAO          1.4360     0.0010     0.2850 na         1 BI8      -0.060400
     29 CAL          1.9820     0.0000     1.5310 cd         1 BI8      -0.046100
     30 HB01        -0.2550     0.8830    -0.5740 h1         1 BI8       0.054700
     31 HB02        -0.5530     0.0020     0.9310 h1         1 BI8       0.054700
     32 HB03        -0.2550    -0.8860    -0.5690 h1         1 BI8       0.054700
     33 HBC1         8.5590    -7.7580     2.0010 hn         1 BI8       0.459467
     34 HBC2         7.4020    -8.7270     2.6280 hn         1 BI8       0.459467
     35 HBB1         7.1910    -7.2180     0.1330 hx         1 BI8       0.112200
     36 HBB2         5.9380    -8.2660     0.8120 hx         1 BI8       0.112200
     37 HBA1         7.0970    -5.7960     2.1540 hc         1 BI8       0.079700
     38 HBA2         5.8440    -6.8440     2.8330 hc         1 BI8       0.079700
     39 HAY1         5.6220    -5.2760     0.2380 h1         1 BI8       0.071200
     40 HAY2         4.3690    -6.3230     0.9180 h1         1 BI8       0.071200
     41 HAW          6.1020    -2.9850     1.3970 h4         1 BI8       0.173000
     42 HAF          2.8930    -6.6360     2.7680 ha         1 BI8       0.112000
     43 HAA          1.1350    -6.2300     4.4340 ha         1 BI8       0.139000
     44 HAB          0.8930    -4.0150     5.4840 ha         1 BI8       0.144000
     45 HAC          2.4150    -2.1790     4.8720 ha         1 BI8       0.143000
     46 HAU          6.2340     1.3600     4.8020 hn         1 BI8       0.361500
     47 HAP          5.8050    -0.0010    -0.2060 ha         1 BI8       0.126000
     48 HAQ          5.7360    -0.0030    -2.6670 ha         1 BI8       0.130000
     49 HAR          3.5760    -0.0020    -3.8490 ha         1 BI8       0.135000
     50 HAS          1.4660    -0.0010    -2.5920 ha         1 BI8       0.131000
     51 HAL          1.4200     0.0010     2.4580 h4         1 BI8       0.174000
     52 HBC3         8.1310    -9.1110     1.2080 hn         1 BI8       0.459467
     53 CAY          5.1980    -5.6670     1.1540 c3         1 BI8       0.071300
@<TRIPOS>BOND
     1     1    28 1
     2     1    30 1
     3     1    31 1
     4     1    32 1
     5     2     3 1
     6     2    33 1
     7     2    34 1
     8     3     4 1
     9     3    35 1
    10     3    36 1
    11     4    53 1
    12     4    37 1
    13     4    38 1
    14    53     5 1
    15    53    39 1
    16    53    40 1
    17     5     6 1
    18     5     7 1
    19     6    13 2
    20     6    41 1
    21     7     8 ar
    22     7    12 ar
    23     8     9 ar
    24     8    42 1
    25     9    10 ar
    26     9    43 1
    27    10    11 ar
    28    10    44 1
    29    11    12 ar
    30    11    45 1
    31    12    13 1
    32    13    14 1
    33    14    15 1
    34    14    20 2
    35    15    16 2
    36    15    17 1
    37    17    18 1
    38    17    46 1
    39    18    19 2
    40    18    20 1
    41    20    21 1
    42    21    22 1
    43    21    29 2
    44    22    23 ar
    45    22    27 ar
    46    23    24 ar
    47    23    47 1
    48    24    25 ar
    49    24    48 1
    50    25    26 ar
    51    25    49 1
    52    26    27 ar
    53    26    50 1
    54    27    28 1
    55    28    29 1
    56    29    51 1
    57    52     2 1
@<TRIPOS>SUBSTRUCTURE
     1 BI8         1 TEMP              0 ****  ****    0 ROOT
