@<TRIPOS>MOLECULE
molecule
   58    61     1     0     0
SMALL
bcc


@<TRIPOS>ATOM
      1 CBC          0.0000     0.0000     0.0000 c3         1 BI9       0.211300
      2 CBE          1.5420     0.0000     0.0000 c3         1 BI9       0.119900
      3 OBG          2.0360     0.0000     1.3350 os         1 BI9      -0.399600
      4 CBF          1.7230    -1.2290     1.9850 c3         1 BI9       0.119900
      5 CBD          0.2160    -1.4930     2.0760 c3         1 BI9       0.211300
      6 NBB         -0.5580    -1.0390     0.8950 nh         1 BI9      -0.748000
      7 CBA         -1.8400    -1.6300     0.6190 ca         1 BI9       0.224600
      8 CAY         -2.5760    -1.2960    -0.5230 ca         1 BI9      -0.266000
      9 CAS         -3.8370    -1.8740    -0.7780 ca         1 BI9       0.120100
     10 OAT         -4.5910    -1.5730    -1.8690 os         1 BI9      -0.312900
     11 CAU         -3.9820    -0.5320    -2.6500 c3         1 BI9       0.116700
     12 CAX         -2.3680    -2.5860     1.5010 ca         1 BI9      -0.215000
     13 CAR         -3.6230    -3.1530     1.2480 ca         1 BI9      -0.062000
     14 CAL         -4.3630    -2.8130     0.1020 ca         1 BI9       0.081600
     15 NAH         -5.5670    -3.3270    -0.2050 nu         1 BI9      -0.702300
     16 C2          -5.9590    -4.6000    -0.0050 ca         1 BI9       0.981900
     17 N3          -5.1760    -5.4990     0.6070 nb         1 BI9      -0.880000
     18 N1          -7.1670    -4.9720    -0.4170 nb         1 BI9      -0.832000
     19 C6          -7.5990    -6.2150    -0.2310 ca         1 BI9       0.538200
     20 C5          -6.8210    -7.1610     0.4130 ca         1 BI9      -0.346200
     21 Cl5         -7.4250    -8.7780     0.6580 cl         1 BI9      -0.099400
     22 C4          -5.5610    -6.7730     0.8720 ca         1 BI9       0.786200
     23 NAE         -4.7730    -7.6540     1.5330 nu         1 BI9      -0.737300
     24 CAJ         -3.5810    -7.4140     2.1290 ca         1 BI9       0.203600
     25 CAQ         -2.5270    -6.8710     1.3630 ca         1 BI9      -0.133000
     26 CAW         -1.2860    -6.6060     1.9140 ca         1 BI9      -0.101000
     27 CAZ         -1.0490    -6.9270     3.2510 ca         1 BI9      -0.149000
     28 CAV         -2.0730    -7.4810     4.0180 ca         1 BI9      -0.108000
     29 CAP         -3.3340    -7.7230     3.4770 ca         1 BI9      -0.174600
     30 CAO         -4.4010    -8.3300     4.3990 c          1 BI9       0.676700
     31 OAI         -5.3230    -8.9720     3.9190 o          1 BI9      -0.606100
     32 NAN         -4.2530    -8.0800     5.7030 ns         1 BI9      -0.571900
     33 CAM         -5.2210    -8.6710     6.6370 c3         1 BI9       0.091300
     34 HBC1        -0.3500     0.9710     0.3290 h1         1 BI9       0.045950
     35 HBC2        -0.3500    -0.1820    -1.0090 h1         1 BI9       0.045950
     36 HBE1         1.8990    -0.8850    -0.5120 h1         1 BI9       0.052700
     37 HBE2         1.8990     0.8850    -0.5120 h1         1 BI9       0.052700
     38 HBF1         2.1840    -2.0400     1.4340 h1         1 BI9       0.052700
     39 HBF2         2.1320    -1.2050     2.9880 h1         1 BI9       0.052700
     40 HBD1        -0.1680    -0.9840     2.9520 h1         1 BI9       0.045950
     41 HBD2         0.0630    -2.5590     2.1960 h1         1 BI9       0.045950
     42 HAY         -2.1700    -0.5790    -1.2260 ha         1 BI9       0.136000
     43 HAX         -1.8170    -2.8640     2.3920 ha         1 BI9       0.136000
     44 HAU1        -3.0340    -0.8820    -3.0410 h1         1 BI9       0.043367
     45 HAU2        -3.8170     0.3370    -2.0250 h1         1 BI9       0.043367
     46 HAU3        -4.6360    -0.2680    -3.4720 h1         1 BI9       0.043367
     47 HAR         -4.0220    -3.8860     1.9390 ha         1 BI9       0.161000
     48 HAH         -6.2340    -2.7060    -0.6200 hn         1 BI9       0.473800
     49 H6          -8.5880    -6.4890    -0.5780 h4         1 BI9       0.035100
     50 HAE         -5.1120    -8.5940     1.5880 hn         1 BI9       0.481800
     51 HAQ         -2.7060    -6.6200     0.3250 ha         1 BI9       0.154000
     52 HAW         -0.4970    -6.1820     1.3060 ha         1 BI9       0.137000
     53 HAZ         -0.0790    -6.7370     3.6940 ha         1 BI9       0.132000
     54 HAV         -1.8850    -7.7250     5.0560 ha         1 BI9       0.131000
     55 HAN         -3.6550    -7.3370     6.0060 hn         1 BI9       0.324500
     56 HAM1        -5.2510    -9.7450     6.4960 h1         1 BI9       0.045367
     57 HAM2        -4.9240    -8.4490     7.6540 h1         1 BI9       0.045367
     58 HAM3        -6.2040    -8.2550     6.4490 h1         1 BI9       0.045367
@<TRIPOS>BOND
     1     1     2 1
     2     1     6 1
     3     2     3 1
     4     3     4 1
     5     4     5 1
     6     5     6 1
     7     6     7 1
     8     7     8 ar
     9     7    12 ar
    10     8     9 ar
    11     9    10 1
    12     9    14 ar
    13    10    11 1
    14    12    13 ar
    15    13    14 ar
    16    14    15 1
    17    15    16 1
    18    16    17 ar
    19    16    18 ar
    20    17    22 ar
    21    18    19 ar
    22    19    20 ar
    23    20    21 1
    24    20    22 ar
    25    22    23 1
    26    23    24 1
    27    24    25 ar
    28    24    29 ar
    29    25    26 ar
    30    26    27 ar
    31    27    28 ar
    32    28    29 ar
    33    29    30 1
    34    30    31 2
    35    30    32 1
    36    32    33 1
    37     1    34 1
    38     1    35 1
    39     2    36 1
    40     2    37 1
    41     4    38 1
    42     4    39 1
    43     5    40 1
    44     5    41 1
    45     8    42 1
    46    12    43 1
    47    11    44 1
    48    11    45 1
    49    11    46 1
    50    13    47 1
    51    15    48 1
    52    19    49 1
    53    23    50 1
    54    25    51 1
    55    26    52 1
    56    27    53 1
    57    28    54 1
    58    32    55 1
    59    33    56 1
    60    33    57 1
    61    33    58 1
@<TRIPOS>SUBSTRUCTURE
     1 BI9         1 TEMP              0 ****  ****    0 ROOT
