@<TRIPOS>MOLECULE
BIA
   51    53     1     0     0
SMALL
bcc


@<TRIPOS>ATOM
      1 N2           0.0000     0.0000     0.0000 nh         1 BIA      -0.355000
      2 C3           0.4630    -4.1380     6.3810 ca         1 BIA      -0.004000
      3 C4           0.5500    -0.2020    -2.3410 ca         1 BIA      -0.136000
      4 C6           1.7860    -2.1170     5.7760 c          1 BIA       0.626700
      5 C7           0.0150    -5.0580     7.3050 ca         1 BIA       0.026100
      6 O8           2.5230    -1.2140     6.1120 o          1 BIA      -0.543100
      7 O9          -0.8110    -6.0650     6.9130 oh         1 BIA      -0.486100
      8 C10          0.1490    -0.3150    -3.6580 ca         1 BIA      -0.079000
      9 C11          1.3160    -3.0910     6.7720 ca         1 BIA      -0.222600
     10 C12          0.0880    -1.2310     2.1170 c3         1 BIA       0.132800
     11 C16          1.9820     0.0000     1.4400 c3         1 BIA       0.132800
     12 O17          1.2060    -4.7110    11.2290 o          1 BIA      -0.445500
     13 O18          2.3840    -2.9080    10.6690 o          1 BIA      -0.445500
     14 C19          1.7170    -2.9760     8.0980 ca         1 BIA       0.080000
     15 C21          1.4680     0.0000     0.0000 c3         1 BIA       0.123300
     16 N23          1.5560    -1.2310     2.1160 n3         1 BIA      -0.529600
     17 C24         -2.1470    -0.2560    -2.9720 ca         1 BIA      -0.189300
     18 C25         -0.4260    -1.2310     0.6770 c3         1 BIA       0.123300
     19 C26         -1.7530    -0.1480    -1.6520 ca         1 BIA      -0.059000
     20 C27          1.9790    -1.1110     3.5170 c3         1 BIA       0.151800
     21 C28          1.2640    -3.9120     9.0470 ca         1 BIA      -0.506200
     22 C31         -0.4020    -0.1150    -1.3330 ca         1 BIA       0.007600
     23 C32          0.4000    -4.9580     8.6400 ca         1 BIA       0.252100
     24 C37         -1.1970    -0.3420    -3.9730 ca         1 BIA      -0.068000
     25 H3           0.1540    -4.2210     5.3460 ha         1 BIA       0.125000
     26 H4           1.6050    -0.1810    -2.0950 ha         1 BIA       0.133000
     27 H5           0.3660    -6.6960     9.3790 ho         1 BIA       0.432000
     28 H9          -1.7070    -5.8120     7.0600 ho         1 BIA       0.416000
     29 H10          0.8910    -0.3830    -4.4460 ha         1 BIA       0.110000
     30 H121        -0.2710    -0.3460     2.6270 h1         1 BIA       0.023450
     31 H122        -0.2710    -2.1180     2.6260 h1         1 BIA       0.023450
     32 H161         1.5780     0.8570     1.9660 h1         1 BIA       0.023450
     33 H162         3.0650     0.0510     1.4350 h1         1 BIA       0.023450
     34 H19          2.3750    -2.1700     8.4000 ha         1 BIA       0.159000
     35 H211         1.8270     0.8860    -0.5100 h1         1 BIA       0.029700
     36 H212         1.8270    -0.8860    -0.5100 h1         1 BIA       0.029700
     37 H221         0.2740    -2.1740     4.2800 hc         1 BIA       0.048200
     38 H222         1.6780    -3.1960     3.9440 hc         1 BIA       0.048200
     39 H251        -0.0220    -2.0880     0.1510 h1         1 BIA       0.029700
     40 H252        -1.5080    -1.2830     0.6820 h1         1 BIA       0.029700
     41 H26         -2.4970    -0.0240    -0.8740 ha         1 BIA       0.125000
     42 H271         1.6550    -0.1550     3.9120 h1         1 BIA       0.029200
     43 H272         3.0590    -1.1770     3.5760 h1         1 BIA       0.029200
     44 H37         -1.5090    -0.4290    -5.0070 ha         1 BIA       0.123000
     45 C33         -3.6120    -0.2860    -3.3200 c3         1 BIA       0.640200
     46 C22          1.3530    -2.2410     4.3380 c3         1 BIA      -0.139400
     47 N14          1.6430    -3.8110    10.3230 no         1 BIA       0.997200
     48 O5          -0.0430    -5.8620     9.5430 oh         1 BIA      -0.448100
     49 F37         -3.7610    -0.4050    -4.7060 f          1 BIA      -0.207633
     50 F38         -4.2190    -1.3790    -2.6910 f          1 BIA      -0.207633
     51 F39         -4.2190     0.8970    -2.8870 f          1 BIA      -0.207633
@<TRIPOS>BOND
     1     1    15 1   
     2     1    18 1   
     3     1    22 1   
     4     2     5 ar  
     5     2     9 ar  
     6     2    25 1   
     7     3     8 ar  
     8     3    22 ar  
     9     3    26 1   
    10     4     6 2   
    11     4     9 1   
    12     4    46 1   
    13     5     7 1   
    14     5    23 ar  
    15     7    28 1   
    16     8    24 ar  
    17     8    29 1   
    18     9    14 ar  
    19    10    16 1   
    20    10    18 1   
    21    10    30 1   
    22    10    31 1   
    23    11    15 1   
    24    11    16 1   
    25    11    32 1   
    26    11    33 1   
    27    12    47 1   
    28    13    47 1   
    29    14    21 ar  
    30    14    34 1   
    31    15    35 1   
    32    15    36 1   
    33    16    20 1   
    34    17    19 ar  
    35    17    24 ar  
    36    17    45 1   
    37    18    39 1   
    38    18    40 1   
    39    19    22 ar  
    40    19    41 1   
    41    20    42 1   
    42    20    43 1   
    43    20    46 1   
    44    21    23 ar  
    45    21    47 1   
    46    23    48 1   
    47    24    44 1   
    48    27    48 1   
    49    37    46 1   
    50    38    46 1   
    51    45    49 1   
    52    45    50 1   
    53    45    51 1   
@<TRIPOS>SUBSTRUCTURE
     1 BIA         1 TEMP              0 ****  ****    0 ROOT
