@<TRIPOS>MOLECULE
molecule
   51    53     1     0     0
SMALL
bcc


@<TRIPOS>ATOM
      1 N2           0.0000     0.0000     0.0000 nh         1 BIA      -0.548000
      2 C3           0.4630    -4.1380     6.3810 ca         1 BIA      -0.045000
      3 C4           0.5500    -0.2020    -2.3410 ca         1 BIA      -0.152000
      4 C6           1.7860    -2.1170     5.7760 c          1 BIA       0.577700
      5 C7           0.0150    -5.0580     7.3050 ca         1 BIA       0.031100
      6 O8           2.5230    -1.2140     6.1120 o          1 BIA      -0.510100
      7 O9          -0.8110    -6.0650     6.9130 oh         1 BIA      -0.507100
      8 C10          0.1490    -0.3150    -3.6580 ca         1 BIA      -0.112000
      9 C11          1.3160    -3.0910     6.7720 ca         1 BIA      -0.199600
     10 C12          0.0880    -1.2310     2.1170 c3         1 BIA       0.131300
     11 C16          1.9820     0.0000     1.4400 c3         1 BIA       0.131300
     12 O17          1.2060    -4.7110    11.2290 o          1 BIA      -0.196000
     13 O18          2.3840    -2.9080    10.6690 o          1 BIA      -0.196000
     14 C19          1.7170    -2.9760     8.0980 ca         1 BIA       0.011000
     15 C21          1.4680     0.0000     0.0000 c3         1 BIA       0.138300
     16 N23          1.5560    -1.2310     2.1160 n3         1 BIA      -0.679600
     17 C24         -2.1470    -0.2560    -2.9720 ca         1 BIA      -0.163300
     18 C25         -0.4260    -1.2310     0.6770 c3         1 BIA       0.138300
     19 C26         -1.7530    -0.1480    -1.6520 ca         1 BIA      -0.092000
     20 C27          1.9790    -1.1110     3.5170 c3         1 BIA       0.145800
     21 C28          1.2640    -3.9120     9.0470 ca         1 BIA      -0.207200
     22 C31         -0.4020    -0.1150    -1.3330 ca         1 BIA       0.071600
     23 C32          0.4000    -4.9580     8.6400 ca         1 BIA       0.205100
     24 C37         -1.1970    -0.3420    -3.9730 ca         1 BIA      -0.103000
     25 H3           0.1540    -4.2210     5.3460 ha         1 BIA       0.159000
     26 H4           1.6050    -0.1810    -2.0950 ha         1 BIA       0.148000
     27 H5           0.3660    -6.6960     9.3790 ho         1 BIA       0.453000
     28 H9          -1.7070    -5.8120     7.0600 ho         1 BIA       0.434000
     29 H10          0.8910    -0.3830    -4.4460 ha         1 BIA       0.140000
     30 H121        -0.2710    -0.3460     2.6270 h1         1 BIA       0.049450
     31 H122        -0.2710    -2.1180     2.6260 h1         1 BIA       0.049450
     32 H161         1.5780     0.8570     1.9660 h1         1 BIA       0.049450
     33 H162         3.0650     0.0510     1.4350 h1         1 BIA       0.049450
     34 H19          2.3750    -2.1700     8.4000 ha         1 BIA       0.196000
     35 H211         1.8270     0.8860    -0.5100 h1         1 BIA       0.055200
     36 H212         1.8270    -0.8860    -0.5100 h1         1 BIA       0.055200
     37 H221         0.2740    -2.1740     4.2800 hc         1 BIA       0.076200
     38 H222         1.6780    -3.1960     3.9440 hc         1 BIA       0.076200
     39 H251        -0.0220    -2.0880     0.1510 h1         1 BIA       0.055200
     40 H252        -1.5080    -1.2830     0.6820 h1         1 BIA       0.055200
     41 H26         -2.4970    -0.0240    -0.8740 ha         1 BIA       0.152000
     42 H271         1.6550    -0.1550     3.9120 h1         1 BIA       0.056700
     43 H272         3.0590    -1.1770     3.5760 h1         1 BIA       0.056700
     44 H37         -1.5090    -0.4290    -5.0070 ha         1 BIA       0.151000
     45 C33         -3.6120    -0.2860    -3.3200 c3         1 BIA       0.674200
     46 C22          1.3530    -2.2410     4.3380 c3         1 BIA      -0.184400
     47 N14          1.6430    -3.8110    10.3230 no         1 BIA       0.264200
     48 O5          -0.0430    -5.8620     9.5430 oh         1 BIA      -0.471100
     49 F37         -3.7610    -0.4050    -4.7060 f          1 BIA      -0.222967
     50 F38         -4.2190    -1.3790    -2.6910 f          1 BIA      -0.222967
     51 F39         -4.2190     0.8970    -2.8870 f          1 BIA      -0.222967
@<TRIPOS>BOND
     1     1    15 1
     2     1    18 1
     3     1    22 1
     4     2     5 ar
     5     2     9 ar
     6     2    25 1
     7     3     8 ar
     8     3    22 ar
     9     3    26 1
    10    48    23 1
    11    48    27 1
    12     4     6 2
    13     4     9 1
    14     4    46 1
    15     5     7 1
    16     5    23 ar
    17     7    28 1
    18     8    24 ar
    19     8    29 1
    20     9    14 ar
    21    10    16 1
    22    10    18 1
    23    10    30 1
    24    10    31 1
    25    47    12 1
    26    47    13 1
    27    47    21 1
    28    11    15 1
    29    11    16 1
    30    11    32 1
    31    11    33 1
    32    14    21 ar
    33    14    34 1
    34    15    35 1
    35    15    36 1
    36    46    20 1
    37    46    37 1
    38    46    38 1
    39    16    20 1
    40    17    19 ar
    41    17    45 1
    42    17    24 ar
    43    18    39 1
    44    18    40 1
    45    19    22 ar
    46    19    41 1
    47    20    42 1
    48    20    43 1
    49    21    23 ar
    50    45    49 1
    51    45    50 1
    52    45    51 1
    53    24    44 1
@<TRIPOS>SUBSTRUCTURE
     1 BIA         1 TEMP              0 ****  ****    0 ROOT
