@<TRIPOS>MOLECULE
molecule
   16    15     1     0     0
SMALL
bcc


@<TRIPOS>ATOM
      1 O7           0.0000     0.0000     0.0000 o          1 BIB      -0.786800
      2 C5           1.2200     0.0000     0.0000 c          1 BIB       0.918600
      3 O6           1.8300     0.0010    -1.0560 o          1 BIB      -0.786800
      4 C3           1.9730     0.0000     1.3060 c3         1 BIB      -0.235700
      5 C2           1.2710     0.9260     2.3010 c3         1 BIB      -0.083100
      6 C4           2.0120    -1.4210     1.8720 c3         1 BIB       0.105800
      7 N1           2.8470    -1.4440     3.0800 nz         1 BIB      -0.815600
      8 H3           2.9850     0.3500     1.1390 hc         1 BIB       0.054700
      9 H21          0.4360     0.4040     2.7520 hc         1 BIB       0.034367
     10 H22          0.9080     1.8060     1.7820 hc         1 BIB       0.034367
     11 H23          1.9700     1.2240     3.0720 hc         1 BIB       0.034367
     12 H41          1.0070    -1.7380     2.1220 hx         1 BIB       0.108700
     13 H42          2.4290    -2.0930     1.1320 hx         1 BIB       0.108700
     14 HN11         2.3140    -1.1160     3.8610 hn         1 BIB       0.437133
     15 HN12         3.6430    -0.8520     2.9470 hn         1 BIB       0.437133
     16 H13          3.1540    -2.3810     3.2560 hn         1 BIB       0.437133
@<TRIPOS>BOND
     1     1     2 1
     2     2     3 1
     3     2     4 1
     4     4     5 1
     5     4     6 1
     6     4     8 1
     7     5     9 1
     8     5    10 1
     9     5    11 1
    10     6     7 1
    11     6    12 1
    12     6    13 1
    13     7    14 1
    14     7    15 1
    15    16     7 1
@<TRIPOS>SUBSTRUCTURE
     1 BIB         1 TEMP              0 ****  ****    0 ROOT
