@<TRIPOS>MOLECULE
molecule
   40    42     1     0     0
SMALL
bcc


@<TRIPOS>ATOM
      1 C1           0.0000     0.0000     0.0000 c3         1 BIC      -0.002300
      2 C2           1.5460     0.0000     0.0000 c3         1 BIC      -0.086400
      3 C3           1.8910     0.0000     1.5090 c3         1 BIC       0.110800
      4 C4           0.6220     0.0380     3.5040 c3         1 BIC       0.093800
      5 C5          -0.7680     0.2200     4.1170 c3         1 BIC      -0.090400
      6 C6          -1.7510    -0.6970     3.3790 c3         1 BIC       0.028200
      7 C7          -1.5500    -0.5090     1.8960 c          1 BIC       0.675500
      8 N1           0.6480     0.5190     2.1300 n3         1 BIC      -0.391600
      9 N2          -0.3850    -0.0310     1.4270 n          1 BIC      -0.357200
     10 O1          -2.4410    -0.7910     1.1250 o          1 BIC      -0.568500
     11 C8          -0.5240    -1.2210    -0.7120 c          1 BIC       0.552900
     12 O2          -1.2450    -1.0960    -1.6730 o          1 BIC      -0.449100
     13 N3          -1.4920    -2.0950     3.7430 nz         1 BIC      -0.799600
     14 C9          -3.1860    -0.3230     3.7570 c3         1 BIC      -0.026100
     15 C10         -4.1480    -1.2160     3.0190 ca         1 BIC      -0.165300
     16 C11         -4.5570    -2.4090     3.5840 ca         1 BIC      -0.103000
     17 C12         -5.4400    -3.2280     2.9090 ca         1 BIC      -0.118000
     18 C13         -5.9160    -2.8550     1.6660 ca         1 BIC      -0.094000
     19 C14         -5.5090    -1.6630     1.1000 ca         1 BIC      -0.118000
     20 C15         -4.6280    -0.8400     1.7790 ca         1 BIC      -0.103000
     21 H1          -0.3730     0.9030    -0.4680 h1         1 BIC       0.115700
     22 H21          1.9270     0.8940    -0.4790 hc         1 BIC       0.084200
     23 H22          1.9270    -0.8940    -0.4790 hc         1 BIC       0.084200
     24 H31          2.7240     0.6630     1.7100 h1         1 BIC       0.071700
     25 H32          2.1000    -1.0060     1.8530 h1         1 BIC       0.071700
     26 H41          1.3430     0.5960     4.0890 h1         1 BIC       0.058200
     27 H42          0.8810    -1.0140     3.5170 h1         1 BIC       0.058200
     28 H51         -1.0690     1.2340     3.8860 hc         1 BIC       0.102200
     29 H52         -0.7030    -0.1590     5.1300 hc         1 BIC       0.102200
     30 H8          -0.2150    -2.2090    -0.3920 h4         1 BIC      -0.002800
     31 HN31        -0.5060    -2.2640     3.7360 hn         1 BIC       0.458467
     32 HN32        -1.8560    -2.2750     4.6580 hn         1 BIC       0.458467
     33 H91         -3.3230    -0.4480     4.8240 hc         1 BIC       0.090700
     34 H92         -3.3730     0.7100     3.4880 hc         1 BIC       0.090700
     35 H11         -4.1840    -2.7020     4.5580 ha         1 BIC       0.129000
     36 H12         -5.7590    -4.1640     3.3530 ha         1 BIC       0.150500
     37 H13         -6.6070    -3.4980     1.1350 ha         1 BIC       0.152000
     38 H14         -5.8830    -1.3690     0.1270 ha         1 BIC       0.150500
     39 H15         -4.3090     0.0950     1.3350 ha         1 BIC       0.129000
     40 H33         -1.9220    -2.6990     3.0710 hn         1 BIC       0.458467
@<TRIPOS>BOND
     1     1     2 1
     2     1     9 1
     3     1    11 1
     4     1    21 1
     5     2     3 1
     6     2    22 1
     7     2    23 1
     8     3     8 1
     9     3    24 1
    10     3    25 1
    11     4     5 1
    12     4     8 1
    13     4    26 1
    14     4    27 1
    15     5     6 1
    16     5    28 1
    17     5    29 1
    18     6     7 1
    19     6    13 1
    20     6    14 1
    21     7     9 1
    22     7    10 2
    23     8     9 1
    24    11    12 2
    25    11    30 1
    26    13    31 1
    27    13    32 1
    28    14    15 1
    29    14    33 1
    30    14    34 1
    31    15    16 ar
    32    15    20 ar
    33    16    17 ar
    34    16    35 1
    35    17    18 ar
    36    17    36 1
    37    18    19 ar
    38    18    37 1
    39    19    20 ar
    40    19    38 1
    41    20    39 1
    42    40    13 1
@<TRIPOS>SUBSTRUCTURE
     1 BIC         1 TEMP              0 ****  ****    0 ROOT
