@<TRIPOS>MOLECULE
BIE
   28    29     1     0     0
SMALL
bcc


@<TRIPOS>ATOM
      1 O5           0.0000     0.0000     0.0000 o          1 BIE      -0.521100
      2 C7           1.2160     0.0000     0.0000 c          1 BIE       0.623300
      3 C4           1.9530     0.0000     1.2770 ca         1 BIE      -0.087600
      4 C5           2.0490     1.1730     2.0330 ca         1 BIE      -0.062000
      5 C6           2.7380     1.1710     3.2240 ca         1 BIE      -0.096000
      6 C3           2.5590    -1.1740     1.7360 ca         1 BIE      -0.402200
      7 N1           2.4620    -2.4190     0.9420 no         1 BIE       1.050200
      8 O4           3.3070    -2.6740     0.1030 o          1 BIE      -0.432500
      9 O3           1.5360    -3.1880     1.1270 o          1 BIE      -0.432500
     10 C2           3.2530    -1.1680     2.9300 ca         1 BIE       0.165100
     11 O2           3.8440    -2.3070     3.3790 oh         1 BIE      -0.491100
     12 C1           3.3400     0.0050     3.6800 ca         1 BIE       0.093100
     13 O1           4.0180     0.0070     4.8560 oh         1 BIE      -0.487100
     14 C8           1.9550     0.0020    -1.2800 ca         1 BIE      -0.206600
     15 C9           1.2640    -0.1160    -2.4890 ca         1 BIE      -0.033500
     16 C13          3.3450     0.1260    -1.2870 ca         1 BIE      -0.033500
     17 C12          4.0290     0.1210    -2.4840 ca         1 BIE      -0.114000
     18 C11          3.3390     0.0050    -3.6780 ca         1 BIE      -0.058000
     19 C10          1.9610    -0.1130    -3.6790 ca         1 BIE      -0.114000
     20 H5           1.5800     2.0830     1.6800 ha         1 BIE       0.123000
     21 H6           2.8090     2.0800     3.8090 ha         1 BIE       0.122000
     22 H2           3.3240    -2.6800     4.0720 ho         1 BIE       0.428000
     23 H1           4.8440     0.4480     4.7410 ho         1 BIE       0.415000
     24 H9           0.1850    -0.2080    -2.4910 ha         1 BIE       0.115000
     25 H13          3.8870     0.2170    -0.3530 ha         1 BIE       0.115000
     26 H12          5.1080     0.2150    -2.4910 ha         1 BIE       0.108500
     27 H11          3.8810     0.0040    -4.6160 ha         1 BIE       0.103000
     28 H10          1.4270    -0.2030    -4.6180 ha         1 BIE       0.108500
@<TRIPOS>BOND
     1     1     2 2   
     2     2     3 1   
     3     2    14 1   
     4     3     4 ar  
     5     3     6 ar  
     6     4     5 ar  
     7     4    20 1   
     8     5    12 ar  
     9     5    21 1   
    10     6     7 1   
    11     6    10 ar  
    12     7     8 1   
    13     7     9 1   
    14    10    11 1   
    15    10    12 ar  
    16    11    22 1   
    17    12    13 1   
    18    13    23 1   
    19    14    15 ar  
    20    14    16 ar  
    21    15    19 ar  
    22    15    24 1   
    23    16    17 ar  
    24    16    25 1   
    25    17    18 ar  
    26    17    26 1   
    27    18    19 ar  
    28    18    27 1   
    29    19    28 1   
@<TRIPOS>SUBSTRUCTURE
     1 BIE         1 TEMP              0 ****  ****    0 ROOT
