@<TRIPOS>MOLECULE
molecule
   48    50     1     0     0
SMALL
bcc


@<TRIPOS>ATOM
      1 C2           0.0000     0.0000     0.0000 ca         1 BIG       0.659900
      2 C5           1.2780    -0.0000     2.3640 ca         1 BIG      -0.294800
      3 C4           1.9910     0.0000     1.1520 ca         1 BIG       0.472100
      4 C8           3.4640     0.0010     2.8610 cc         1 BIG      -0.087100
      5 O3'          5.2090     4.4960     0.2880 oh         1 BIG      -0.584800
      6 C3'          6.0860     3.3700     0.3340 c3         1 BIG       0.148100
      7 C4'          6.3190     2.8140    -1.0860 c3         1 BIG      -0.067700
      8 C5'          7.8120     2.8200    -1.4210 c3         1 BIG       0.018700
      9 S5'          8.0480     2.3030    -3.1440 ss         1 BIG      -0.351200
     10 C20          9.8490     2.3730    -3.3480 c3         1 BIG       0.015700
     11 C21         10.2170     1.9570    -4.7730 c3         1 BIG      -0.067400
     12 C22         11.7370     2.0160    -4.9460 c3         1 BIG      -0.082400
     13 C23         12.1040     1.6010    -6.3710 c3         1 BIG      -0.091100
     14 C1'          5.7860     1.3660    -1.0430 c3         1 BIG       0.147800
     15 N1'          4.8030     1.3630     0.0710 n3         1 BIG      -0.672600
     16 C2'          5.4320     2.2110     1.1160 c3         1 BIG       0.121800
     17 N7           2.2030    -0.0010     3.3830 na         1 BIG      -0.164400
     18 C6          -0.1190     0.0010     2.3070 ca         1 BIG       0.705200
     19 N6          -0.8740     0.0020     3.4700 nv         1 BIG      -1.085500
     20 N3           1.3140     0.0000     0.0000 nb         1 BIG      -0.693000
     21 C9           3.4040    -0.0000     1.5170 cd         1 BIG      -0.256000
     22 N1          -0.7080     0.0010     1.1150 nb         1 BIG      -0.747000
     23 H2          -0.5220     0.0000    -0.9490 h5         1 BIG       0.059100
     24 H8           4.3780     0.0010     3.4430 h4         1 BIG       0.168000
     25 HO3'         5.5470     5.1810     0.8390 ho         1 BIG       0.396000
     26 H3'          7.0310     3.6410     0.7880 h1         1 BIG       0.029700
     27 H4'          5.7630     3.3960    -1.8110 hc         1 BIG       0.099700
     28 H5'          8.2080     3.8200    -1.2870 h1         1 BIG       0.054700
     29 H5'A         8.3330     2.1340    -0.7630 h1         1 BIG       0.054700
     30 H20         10.3190     1.6980    -2.6420 h1         1 BIG       0.054700
     31 H20A        10.1940     3.3830    -3.1660 h1         1 BIG       0.054700
     32 H21          9.8720     0.9470    -4.9550 hc         1 BIG       0.055700
     33 H21A         9.7480     2.6320    -5.4790 hc         1 BIG       0.055700
     34 H22         12.2070     1.3400    -4.2410 hc         1 BIG       0.040200
     35 H22A        12.0830     3.0260    -4.7630 hc         1 BIG       0.040200
     36 H23         13.1800     1.6420    -6.4930 hc         1 BIG       0.035033
     37 H23A        11.6350     2.2760    -7.0760 hc         1 BIG       0.035033
     38 H23B        11.7580     0.5910    -6.5540 hc         1 BIG       0.035033
     39 H1'          6.5930     0.6740    -0.8350 h1         1 BIG       0.051200
     40 H1'A         5.2970     1.1170    -1.9770 h1         1 BIG       0.051200
     41 H2'          6.1850     1.6480     1.6540 h1         1 BIG       0.045700
     42 H2'A         4.6790     2.5930     1.7940 h1         1 BIG       0.045700
     43 H10          4.3620    -0.6580    -0.2670 h1         1 BIG       0.043200
     44 H10A         5.4600    -0.3490     1.0860 h1         1 BIG       0.043200
     45 HN7          1.9840    -0.0010     4.3600 hn         1 BIG       0.302700
     46 HN6         -1.1620     0.8690     3.8780 hn         1 BIG       0.436300
     47 HN6A        -1.1640    -0.8640     3.8790 hn         1 BIG       0.436300
     48 C10          4.5750    -0.0010     0.5680 c3         1 BIG       0.232000
@<TRIPOS>BOND
     1     1    20 ar
     2     1    22 ar
     3     2     3 ar
     4     2    17 1
     5     2    18 ar
     6     3    20 ar
     7     3    21 1
     8     4    17 1
     9     4    21 2
    10     5     6 1
    11     6     7 1
    12     6    16 1
    13     7     8 1
    14     7    14 1
    15     8     9 1
    16     9    10 1
    17    10    11 1
    18    11    12 1
    19    12    13 1
    20    14    15 1
    21    15    16 1
    22    15    48 1
    23    48    21 1
    24    18    19 1
    25    18    22 ar
    26     1    23 1
    27     4    24 1
    28     5    25 1
    29     6    26 1
    30     7    27 1
    31     8    28 1
    32     8    29 1
    33    10    30 1
    34    10    31 1
    35    11    32 1
    36    11    33 1
    37    12    34 1
    38    12    35 1
    39    13    36 1
    40    13    37 1
    41    13    38 1
    42    14    39 1
    43    14    40 1
    44    16    41 1
    45    16    42 1
    46    48    43 1
    47    48    44 1
    48    17    45 1
    49    19    46 1
    50    19    47 1
@<TRIPOS>SUBSTRUCTURE
     1 BIG         1 TEMP              0 ****  ****    0 ROOT
