@<TRIPOS>MOLECULE
molecule
   24    25     1     0     0
SMALL
bcc


@<TRIPOS>ATOM
      1 O31          0.0000     0.0000     0.0000 o          1 BIH      -0.722700
      2 S3           1.4210     0.0000     0.0000 s6         1 BIH       1.334600
      3 O32          2.2430     0.0000     1.1600 o          1 BIH      -0.722700
      4 O3           1.8340    -1.2270    -0.7990 o          1 BIH      -0.722700
      5 C2           1.9000     1.4190    -0.9270 ca         1 BIH      -0.268500
      6 C1           1.0090     1.9720    -1.8450 ca         1 BIH      -0.059000
      7 C            1.3470     3.0680    -2.5780 ca         1 BIH      -0.156000
      8 C8A          2.6130     3.6540    -2.4080 ca         1 BIH      -0.039000
      9 C5           2.9990     4.7860    -3.1460 ca         1 BIH      -0.035000
     10 C4A          3.5190     3.0920    -1.4730 ca         1 BIH      -0.039000
     11 C4           3.1320     1.9630    -0.7310 ca         1 BIH      -0.035000
     12 C9           4.7860     3.6770    -1.3040 ca         1 BIH      -0.156000
     13 C8           5.1240     4.7740    -2.0360 ca         1 BIH      -0.059000
     14 C7           4.2330     5.3260    -2.9540 ca         1 BIH      -0.268500
     15 S6           4.7120     6.7450    -3.8810 s6         1 BIH       1.334600
     16 O6           4.2980     7.9730    -3.0820 o          1 BIH      -0.722700
     17 O61          6.1340     6.7460    -3.8800 o          1 BIH      -0.722700
     18 O1           3.8900     6.7450    -5.0410 o          1 BIH      -0.722700
     19 H1           0.0320     1.5230    -1.9780 ha         1 BIH       0.135000
     20 H            0.6440     3.4870    -3.2870 ha         1 BIH       0.111000
     21 H5           2.3170     5.2260    -3.8630 ha         1 BIH       0.143500
     22 H4           3.7640     1.6000     0.0710 ha         1 BIH       0.143500
     23 H9           5.4890     3.2590    -0.5930 ha         1 BIH       0.111000
     24 H8           6.1010     5.2240    -1.9030 ha         1 BIH       0.135000
@<TRIPOS>BOND
     1     1     2 1
     2     2     3 1
     3     2     4 1
     4     2     5 1
     5     5     6 ar
     6     5    11 ar
     7     6     7 ar
     8     6    19 1
     9     7     8 ar
    10     7    20 1
    11     8     9 ar
    12     8    10 ar
    13     9    14 ar
    14     9    21 1
    15    10    11 ar
    16    10    12 ar
    17    11    22 1
    18    12    13 ar
    19    12    23 1
    20    13    14 ar
    21    13    24 1
    22    14    15 1
    23    15    16 1
    24    15    17 1
    25    15    18 1
@<TRIPOS>SUBSTRUCTURE
     1 BIH         1 TEMP              0 ****  ****    0 ROOT
