@<TRIPOS>MOLECULE
BIH
   24    25     1     0     0
SMALL
bcc


@<TRIPOS>ATOM
      1 O31         0.0150    0.0340    0.1670 o         1 BIH     -0.753200
      2 S3          1.4170   -0.0870   -0.0280 s6        1 BIH      1.456100
      3 O32         2.1590   -0.0580    1.1820 o         1 BIH     -0.753200
      4 O3          1.7570   -1.1900   -0.8530 o         1 BIH     -0.753200
      5 C2          1.8990    1.3510   -0.9170 ca        1 BIH     -0.276500
      6 C1          1.0060    1.9210   -1.8580 ca        1 BIH     -0.062000
      7 C           1.3460    3.0330   -2.5860 ca        1 BIH     -0.157000
      8 C8A         2.6150    3.6510   -2.4120 ca        1 BIH     -0.042000
      9 C5          3.0060    4.8050   -3.1470 ca        1 BIH     -0.036000
     10 C4A         3.5170    3.0960   -1.4680 ca        1 BIH     -0.042000
     11 C4          3.1260    1.9420   -0.7330 ca        1 BIH     -0.036000
     12 C9          4.7850    3.7140   -1.2930 ca        1 BIH     -0.157000
     13 C8          5.1260    4.8260   -2.0210 ca        1 BIH     -0.062000
     14 C7          4.2330    5.3960   -2.9620 ca        1 BIH     -0.276500
     15 S6          4.7150    6.8340   -3.8520 s6        1 BIH      1.456100
     16 O6          4.3750    7.9370   -3.0270 o         1 BIH     -0.753200
     17 O61         6.1160    6.7130   -4.0470 o         1 BIH     -0.753200
     18 O1          3.9730    6.8050   -5.0620 o         1 BIH     -0.753200
     19 H1          0.0170    1.4480   -1.9780 ha        1 BIH      0.132000
     20 H           0.6480    3.4700   -3.3140 ha        1 BIH      0.109000
     21 H5          2.3050    5.2220   -3.8890 ha        1 BIH      0.136000
     22 H4          3.8270    1.5250    0.0100 ha        1 BIH      0.136000
     23 H9          5.4840    3.2770   -0.5650 ha        1 BIH      0.109000
     24 H8          6.1150    5.2990   -1.9010 ha        1 BIH      0.132000
@<TRIPOS>BOND
     1    1    2 1   
     2    2    3 1   
     3    2    4 1   
     4    2    5 1   
     5    5    6 ar  
     6    5   11 ar  
     7    6    7 ar  
     8    6   19 1   
     9    7    8 ar  
    10    7   20 1   
    11    8    9 ar  
    12    8   10 ar  
    13    9   14 ar  
    14    9   21 1   
    15   10   11 ar  
    16   10   12 ar  
    17   11   22 1   
    18   12   13 ar  
    19   12   23 1   
    20   13   14 ar  
    21   13   24 1   
    22   14   15 1   
    23   15   16 1   
    24   15   17 1   
    25   15   18 1   
@<TRIPOS>SUBSTRUCTURE
     1 BIH         1 TEMP              0 ****  ****    0 ROOT
