@<TRIPOS>MOLECULE
molecule
   69    72     1     0     0
SMALL
bcc


@<TRIPOS>ATOM
      1 CAI          0.0000     0.0000     0.0000 c3         1 BII      -0.107100
      2 CAN          1.5290     0.0000     0.0000 c3         1 BII       0.238500
      3 CAW          1.9990     0.0000     1.4570 c3         1 BII      -0.107100
      4 NAO          2.0400    -1.1940    -0.7250 n7         1 BII      -0.875100
      5 SAP          3.2910    -1.0260    -1.8210 sy         1 BII       1.190200
      6 OAX          4.0170    -2.3260    -2.0020 o          1 BII      -0.583300
      7 OAJ          2.7310    -0.6370    -3.1530 o          1 BII      -0.583300
      8 CAQ          4.4830     0.1480    -1.2340 ca         1 BII      -0.314500
      9 CAY          5.2940    -0.2580    -0.1650 ca         1 BII      -0.013000
     10 CBC          6.2570     0.5960     0.3720 ca         1 BII      -0.184000
     11 CAZ          6.4050     1.8690    -0.1670 ca         1 BII      -0.059000
     12 CAR          5.5980     2.2740    -1.2390 ca         1 BII      -0.180000
     13 CAK          4.6210     1.4340    -1.7850 ca         1 BII       0.275600
     14 NAE          3.8480     1.8250    -2.8270 nu         1 BII      -0.753300
     15 C4           3.4500     3.0820    -3.1430 ca         1 BII       0.741200
     16 N3           3.8520     4.1830    -2.4650 nb         1 BII      -0.881000
     17 C5           2.5880     3.2600    -4.2250 ca         1 BII      -0.334200
     18 Cl5          2.0690     1.8740    -5.1350 cl         1 BII      -0.079400
     19 C6           2.1520     4.5480    -4.5570 ca         1 BII       0.513200
     20 N1           2.5640     5.5930    -3.8380 nb         1 BII      -0.741000
     21 C2           3.4050     5.4190    -2.7960 ca         1 BII       0.968000
     22 NAH          3.7970     6.4930    -2.1050 ne         1 BII      -0.750700
     23 CAM          4.7200     6.4870    -1.1310 cf         1 BII       0.652900
     24 CAT          5.6960     7.4870    -1.1520 cf         1 BII       0.021500
     25 CBB          6.6610     7.5300    -0.1430 c2         1 BII      -0.241200
     26 OAU          5.6730     8.4020    -2.1650 os         1 BII      -0.270900
     27 CAV          6.7940     9.3040    -2.2200 c3         1 BII       0.115700
     28 CAS          4.7150     5.5520    -0.0780 cf         1 BII      -0.280600
     29 CBA          5.6900     5.5970     0.9280 c2         1 BII      -0.103200
     30 CBD          6.6720     6.6010     0.9000 c3         1 BII       0.328900
     31 NBE          7.6270     6.7060     1.8380 n3         1 BII      -0.892600
     32 CBG          7.8410     5.8340     2.9980 c3         1 BII       0.222800
     33 CBF          8.6380     7.7630     1.8500 c3         1 BII       0.230800
     34 CBH          9.7650     7.2020     2.7060 c3         1 BII      -0.088400
     35 CBI          9.3630     5.7510     2.9490 c3         1 BII       0.150500
     36 NBJ         10.0160     5.2150     4.1770 n7         1 BII      -0.823200
     37 CBK          9.0820     5.0040     5.3260 c3         1 BII       0.150100
     38 HAI1        -0.3610    -0.0100    -1.0210 hc         1 BII       0.045033
     39 HAI2        -0.3610    -0.8800     0.5190 hc         1 BII       0.045033
     40 HAI3        -0.3610     0.8890     0.5020 hc         1 BII       0.045033
     41 HAN          1.8870     0.8970    -0.4910 h1         1 BII       0.061700
     42 HAW1         1.2150    -0.3990     2.0890 hc         1 BII       0.045033
     43 HAW2         2.8860    -0.6150     1.5500 hc         1 BII       0.045033
     44 HAW3         2.2280     1.0140     1.7620 hc         1 BII       0.045033
     45 HAO          1.6960    -2.1050    -0.4940 hn         1 BII       0.462800
     46 HAY          5.1730    -1.2510     0.2490 ha         1 BII       0.142000
     47 HBC          6.8770     0.2730     1.2000 ha         1 BII       0.137000
     48 HAZ          7.1500     2.5450     0.2360 ha         1 BII       0.131000
     49 HAR          5.7240     3.2690    -1.6470 ha         1 BII       0.174000
     50 HAE          3.5330     1.0980    -3.4380 hn         1 BII       0.499800
     51 H6           1.4790     4.6950    -5.3940 h4         1 BII       0.041100
     52 HAS          3.9420     4.7940    -0.0390 ha         1 BII       0.174000
     53 HBB          7.4200     8.3030    -0.1700 ha         1 BII       0.154000
     54 HBD          6.0230     7.2400     1.4870 h1         1 BII       0.094700
     55 HAV1         7.7140     8.7340    -2.2620 h1         1 BII       0.044367
     56 HAV2         6.7970     9.9310    -1.3360 h1         1 BII       0.044367
     57 HAV3         6.7140     9.9260    -3.1030 h1         1 BII       0.044367
     58 HBA          5.7430     4.8070     1.6670 ha         1 BII       0.148000
     59 HBG1         7.3880     4.8610     2.8480 h1         1 BII       0.051200
     60 HBG2         7.5010     6.3040     3.9130 h1         1 BII       0.051200
     61 HBF1         8.9910     7.9580     0.8440 h1         1 BII       0.040700
     62 HBF2         8.2370     8.6640     2.2980 h1         1 BII       0.040700
     63 HBI          9.6580     5.1540     2.0940 h1         1 BII       0.055700
     64 HBH1        10.7060     7.2480     2.1710 hc         1 BII       0.062700
     65 HBH2         9.8290     7.7380     3.6450 hc         1 BII       0.062700
     66 HBJ         10.4780     4.3540     3.9610 hn         1 BII       0.358800
     67 HBK1         9.6330     4.6060     6.1700 h1         1 BII       0.033700
     68 HBK2         8.3080     4.3030     5.0380 h1         1 BII       0.033700
     69 HBK3         8.6300     5.9480     5.6020 h1         1 BII       0.033700
@<TRIPOS>BOND
     1     1     2 1
     2     2     3 1
     3     2     4 1
     4     4     5 1
     5     5     6 2
     6     5     7 2
     7     5     8 1
     8     8     9 ar
     9     8    13 ar
    10     9    10 ar
    11    10    11 ar
    12    11    12 ar
    13    12    13 ar
    14    13    14 1
    15    14    15 1
    16    15    16 ar
    17    15    17 ar
    18    16    21 ar
    19    17    18 1
    20    17    19 ar
    21    19    20 ar
    22    20    21 ar
    23    21    22 1
    24    22    23 2
    25    23    24 1
    26    23    28 1
    27    24    25 2
    28    24    26 1
    29    25    30 1
    30    26    27 1
    31    28    29 2
    32    29    30 1
    33    30    31 1
    34    31    32 1
    35    31    33 1
    36    32    35 1
    37    33    34 1
    38    34    35 1
    39    35    36 1
    40    36    37 1
    41     1    38 1
    42     1    39 1
    43     1    40 1
    44     2    41 1
    45     3    42 1
    46     3    43 1
    47     3    44 1
    48     4    45 1
    49     9    46 1
    50    10    47 1
    51    11    48 1
    52    12    49 1
    53    14    50 1
    54    19    51 1
    55    28    52 1
    56    25    53 1
    57    30    54 1
    58    27    55 1
    59    27    56 1
    60    27    57 1
    61    29    58 1
    62    32    59 1
    63    32    60 1
    64    33    61 1
    65    33    62 1
    66    35    63 1
    67    34    64 1
    68    34    65 1
    69    36    66 1
    70    37    67 1
    71    37    68 1
    72    37    69 1
@<TRIPOS>SUBSTRUCTURE
     1 BII         1 TEMP              0 ****  ****    0 ROOT
