@<TRIPOS>MOLECULE
BII
   69    72     1     0     0
SMALL
bcc


@<TRIPOS>ATOM
      1 CAI          0.0000     0.0000     0.0000 c3         1 BII      -0.017100
      2 CAN          1.5290     0.0000     0.0000 c3         1 BII       0.195500
      3 CAW          1.9990     0.0000     1.4570 c3         1 BII      -0.017100
      4 NAO          2.0400    -1.1940    -0.7250 n7         1 BII      -0.528100
      5 SAP          3.2910    -1.0260    -1.8210 sy         1 BII       0.829200
      6 OAX          4.0170    -2.3260    -2.0020 o          1 BII      -0.547800
      7 OAJ          2.7310    -0.6370    -3.1530 o          1 BII      -0.547800
      8 CAQ          4.4830     0.1480    -1.2340 ca         1 BII      -0.165500
      9 CAY          5.2940    -0.2580    -0.1650 ca         1 BII       0.029000
     10 CBC          6.2570     0.5960     0.3720 ca         1 BII      -0.169000
     11 CAZ          6.4050     1.8690    -0.1670 ca         1 BII      -0.019000
     12 CAR          5.5980     2.2740    -1.2390 ca         1 BII      -0.177000
     13 CAK          4.6210     1.4340    -1.7850 ca         1 BII       0.126600
     14 NAE          3.8480     1.8250    -2.8270 nu         1 BII      -0.309300
     15 C4           3.4500     3.0820    -3.1430 ca         1 BII       0.556200
     16 N3           3.8520     4.1830    -2.4650 nb         1 BII      -0.794000
     17 C5           2.5880     3.2600    -4.2250 ca         1 BII      -0.421200
     18 Cl5          2.0690     1.8740    -5.1350 cl         1 BII       0.035600
     19 C6           2.1520     4.5480    -4.5570 ca         1 BII       0.512200
     20 N1           2.5640     5.5930    -3.8380 nb         1 BII      -0.663000
     21 C2           3.4050     5.4190    -2.7960 ca         1 BII       0.855000
     22 NAH          3.7970     6.4930    -2.1050 ne         1 BII      -0.642700
     23 CAM          4.7200     6.4870    -1.1310 cf         1 BII       0.583900
     24 CAT          5.6960     7.4870    -1.1520 cf         1 BII       0.036500
     25 CBB          6.6610     7.5300    -0.1430 c2         1 BII      -0.258200
     26 OAU          5.6730     8.4020    -2.1650 os         1 BII      -0.251900
     27 CAV          6.7940     9.3040    -2.2200 c3         1 BII       0.230700
     28 CAS          4.7150     5.5520    -0.0780 cf         1 BII      -0.260600
     29 CBA          5.6900     5.5970     0.9280 c2         1 BII      -0.070200
     30 CBD          6.6720     6.6010     0.9000 c3         1 BII       0.270900
     31 NBE          7.6270     6.7060     1.8380 n3         1 BII      -0.584600
     32 CBG          7.8410     5.8340     2.9980 c3         1 BII       0.181800
     33 CBF          8.6380     7.7630     1.8500 c3         1 BII       0.191800
     34 CBH          9.7650     7.2020     2.7060 c3         1 BII      -0.065400
     35 CBI          9.3630     5.7510     2.9490 c3         1 BII       0.104500
     36 NBJ         10.0160     5.2150     4.1770 n7         1 BII      -0.588200
     37 CBK          9.0820     5.0040     5.3260 c3         1 BII       0.177100
     38 HAI1        -0.3610    -0.8330     0.5900 hc         1 BII       0.012533
     39 HAI2        -0.3610    -0.0950    -1.0170 hc         1 BII       0.012533
     40 HAI3        -0.3610     0.9280     0.4260 hc         1 BII       0.012533
     41 HAN          1.8870     0.8970    -0.4910 h1         1 BII       0.026700
     42 HAW1         3.0290     0.3340     1.5040 hc         1 BII       0.012533
     43 HAW2         1.9250    -1.0030     1.8600 hc         1 BII       0.012533
     44 HAW3         1.3750     0.6690     2.0370 hc         1 BII       0.012533
     45 HAO          1.5800    -2.0760    -0.6230 hn         1 BII       0.356800
     46 HAY          5.1730    -1.2510     0.2490 ha         1 BII       0.113000
     47 HBC          6.8770     0.2730     1.2000 ha         1 BII       0.113000
     48 HAZ          7.1500     2.5450     0.2360 ha         1 BII       0.100000
     49 HAR          5.7240     3.2690    -1.6470 ha         1 BII       0.151000
     50 HAE          3.5340     1.0980    -3.4390 hn         1 BII       0.352800
     51 H6           1.4790     4.6950    -5.3940 h4         1 BII      -0.012900
     52 HAS          3.9430     4.7930    -0.0400 ha         1 BII       0.142000
     53 HBB          7.4210     8.3020    -0.1710 ha         1 BII       0.141000
     54 HBD          6.0230     7.2400     1.4870 h1         1 BII       0.053700
     55 HAV1         6.7970     9.9310    -1.3360 h1         1 BII      -0.000967
     56 HAV2         7.7140     8.7340    -2.2620 h1         1 BII      -0.000967
     57 HAV3         6.7130     9.9260    -3.1030 h1         1 BII      -0.000967
     58 HBA          5.6230     4.9290     1.7780 ha         1 BII       0.117000
     59 HBG1         7.5010     6.3040     3.9130 h1         1 BII       0.027200
     60 HBG2         7.3880     4.8610     2.8480 h1         1 BII       0.027200
     61 HBF1         8.9910     7.9580     0.8440 h1         1 BII       0.014200
     62 HBF2         8.2370     8.6640     2.2980 h1         1 BII       0.014200
     63 HBI          9.6580     5.1540     2.0940 h1         1 BII       0.048700
     64 HBH1         9.8290     7.7380     3.6450 hc         1 BII       0.028200
     65 HBH2        10.7060     7.2480     2.1710 hc         1 BII       0.028200
     66 HBJ         10.7560     5.8280     4.4570 hn         1 BII       0.260800
     67 HBK1         8.3040     4.3080     5.0360 h1         1 BII       0.001367
     68 HBK2         8.6350     5.9490     5.6070 h1         1 BII       0.001367
     69 HBK3         9.6320     4.6000     6.1680 h1         1 BII       0.001367
@<TRIPOS>BOND
     1     1     2 1   
     2     1    38 1   
     3     1    39 1   
     4     1    40 1   
     5     2     3 1   
     6     2     4 1   
     7     2    41 1   
     8     3    42 1   
     9     3    43 1   
    10     3    44 1   
    11     4     5 1   
    12     4    45 1   
    13     5     6 2   
    14     5     7 2   
    15     5     8 1   
    16     8     9 ar  
    17     8    13 ar  
    18     9    10 ar  
    19     9    46 1   
    20    10    11 ar  
    21    10    47 1   
    22    11    12 ar  
    23    11    48 1   
    24    12    13 ar  
    25    12    49 1   
    26    13    14 1   
    27    14    15 1   
    28    14    50 1   
    29    15    16 ar  
    30    15    17 ar  
    31    16    21 ar  
    32    17    18 1   
    33    17    19 ar  
    34    19    20 ar  
    35    19    51 1   
    36    20    21 ar  
    37    21    22 1   
    38    22    23 2   
    39    23    24 1   
    40    23    28 1   
    41    24    25 2   
    42    24    26 1   
    43    25    30 1   
    44    25    53 1   
    45    26    27 1   
    46    27    55 1   
    47    27    56 1   
    48    27    57 1   
    49    28    29 2   
    50    28    52 1   
    51    29    30 1   
    52    29    58 1   
    53    30    31 1   
    54    30    54 1   
    55    31    32 1   
    56    31    33 1   
    57    32    35 1   
    58    32    59 1   
    59    32    60 1   
    60    33    34 1   
    61    33    61 1   
    62    33    62 1   
    63    34    35 1   
    64    34    64 1   
    65    34    65 1   
    66    35    36 1   
    67    35    63 1   
    68    36    37 1   
    69    36    66 1   
    70    37    67 1   
    71    37    68 1   
    72    37    69 1   
@<TRIPOS>SUBSTRUCTURE
     1 BII         1 TEMP              0 ****  ****    0 ROOT
