@<TRIPOS>MOLECULE
molecule
   63    67     1     0     0
SMALL
bcc


@<TRIPOS>ATOM
      1 CBD          0.0000     0.0000     0.0000 c3         1 BIJ       0.253800
      2 CBF          1.5370     0.0000     0.0000 c3         1 BIJ       0.142800
      3 NBH          2.0320     0.0000     1.3870 n3         1 BIJ      -0.707600
      4 CBI          3.4870     0.2400     1.4020 c3         1 BIJ       0.142100
      5 CBG          1.7360    -1.3010     2.0260 c3         1 BIJ       0.142800
      6 CBE          0.2030    -1.4980     2.1550 c3         1 BIJ       0.253800
      7 NBC         -0.5780    -0.9970     0.9660 nh         1 BIJ      -0.746000
      8 CBA         -1.9160    -1.4510     0.7610 ca         1 BIJ       0.246600
      9 CAW         -2.6550    -0.9920    -0.3330 ca         1 BIJ      -0.304000
     10 CAQ         -3.9720    -1.4160    -0.5570 ca         1 BIJ       0.203100
     11 OAR         -4.6870    -0.9670    -1.6360 os         1 BIJ      -0.289900
     12 CAS         -3.8970    -0.2330    -2.6140 c3         1 BIJ       0.116700
     13 CAV         -2.5290    -2.3450     1.6470 ca         1 BIJ      -0.247000
     14 CAP         -3.8440    -2.7730     1.4350 ca         1 BIJ      -0.059000
     15 CAL         -4.5740    -2.3210     0.3270 ca         1 BIJ       0.080400
     16 NAH         -5.8450    -2.7040     0.0940 ne         1 BIJ      -0.527100
     17 C2          -6.3920    -3.9050     0.3610 cf         1 BIJ       0.816300
     18 N3          -5.7320    -4.8290     1.0900 nf         1 BIJ      -0.826000
     19 N1          -7.6320    -4.1730    -0.1070 nf         1 BIJ      -0.640000
     20 C6          -8.2170    -5.3420     0.1370 c2         1 BIJ       0.450200
     21 C5          -7.5480    -6.3160     0.8860 c3         1 BIJ      -0.169900
     22 Cl5         -8.2970    -7.8450     1.2190 cl         1 BIJ      -0.098400
     23 C4          -6.2710    -6.0320     1.3740 c2         1 BIJ       0.701200
     24 NAE         -5.5970    -6.9460     2.1070 nu         1 BIJ      -0.716600
     25 CAJ         -4.6900    -6.6150     3.0470 ca         1 BIJ       0.217600
     26 CAN         -4.9390    -6.8290     4.4180 ca         1 BIJ      -0.167600
     27 CAM         -6.0340    -7.3540     5.1280 c          1 BIJ       0.715100
     28 OAI         -7.0690    -7.7730     4.6040 o          1 BIJ      -0.643500
     29 NAU         -5.8210    -7.3410     6.4530 n          1 BIJ      -0.495800
     30 CAT         -6.7640    -7.8220     7.4960 c3         1 BIJ       0.126300
     31 CAX         -4.4910    -6.7960     6.7500 c3         1 BIJ       0.142300
     32 CAY         -3.9580    -6.4670     5.3550 ca         1 BIJ      -0.086300
     33 CBB         -2.7480    -5.9070     4.9420 ca         1 BIJ      -0.123000
     34 CAZ         -2.5000    -5.7000     3.5860 ca         1 BIJ      -0.096000
     35 CAO         -3.4670    -6.0590     2.6470 ca         1 BIJ      -0.127000
     36 HBD1        -0.3480    -0.2390    -0.9980 h1         1 BIJ       0.044700
     37 HBD2        -0.3480     0.9890     0.2710 h1         1 BIJ       0.044700
     38 HBF1         1.8960     0.8860    -0.5100 h1         1 BIJ       0.042200
     39 HBF2         1.8960    -0.8860    -0.5100 h1         1 BIJ       0.042200
     40 HBI1         3.9870    -0.5380     0.8380 h1         1 BIJ       0.035033
     41 HBI2         3.8440     0.2310     2.4250 h1         1 BIJ       0.035033
     42 HBI3         3.6990     1.2030     0.9540 h1         1 BIJ       0.035033
     43 HBG1         2.1490    -2.0980     1.4200 h1         1 BIJ       0.042200
     44 HBG2         2.1840    -1.3240     3.0120 h1         1 BIJ       0.042200
     45 HBE1        -0.1380    -0.9710     3.0380 h1         1 BIJ       0.044700
     46 HBE2         0.0020    -2.5550     2.2780 h1         1 BIJ       0.044700
     47 HAW         -2.2010    -0.2910    -1.0220 ha         1 BIJ       0.135000
     48 HAV         -1.9810    -2.7060     2.5090 ha         1 BIJ       0.124000
     49 HAS1        -4.5050    -0.0290    -3.4870 h1         1 BIJ       0.041033
     50 HAS2        -3.0380    -0.8260    -2.9020 h1         1 BIJ       0.041033
     51 HAS3        -3.5630     0.7010    -2.1800 h1         1 BIJ       0.041033
     52 HAP         -4.3000    -3.4690     2.1290 ha         1 BIJ       0.164000
     53 H6          -9.2260    -5.5260    -0.2120 h4         1 BIJ       0.057800
     54 H5          -7.1160    -6.7200    -0.0210 h1         1 BIJ       0.090700
     55 HX2         -3.8700    -7.5400     7.2330 h1         1 BIJ       0.064700
     56 HAE         -5.7790    -7.9160     1.9430 hn         1 BIJ       0.469800
     57 HAO         -3.2740    -5.8980     1.5930 ha         1 BIJ       0.161000
     58 HAT1        -7.6910    -7.2650     7.4290 h1         1 BIJ       0.046033
     59 HAT2        -6.9640    -8.8760     7.3440 h1         1 BIJ       0.046033
     60 HAT3        -6.3250    -7.6750     8.4750 h1         1 BIJ       0.046033
     61 HAX         -4.5700    -5.8980     7.3520 h1         1 BIJ       0.064700
     62 HBB         -2.0020    -5.6310     5.6770 ha         1 BIJ       0.134000
     63 HAZ         -1.5590    -5.2720     3.2630 ha         1 BIJ       0.141000
@<TRIPOS>BOND
     1     1     2 1
     2     1     7 1
     3     2     3 1
     4     3     4 1
     5     3     5 1
     6     5     6 1
     7     6     7 1
     8     7     8 1
     9     8     9 ar
    10     8    13 ar
    11     9    10 ar
    12    10    11 1
    13    10    15 ar
    14    11    12 1
    15    13    14 ar
    16    14    15 ar
    17    15    16 1
    18    16    17 2
    19    17    18 1
    20    17    19 1
    21    18    23 2
    22    19    20 2
    23    20    21 1
    24    21    22 1
    25    21    23 1
    26    23    24 1
    27    24    25 1
    28    25    26 ar
    29    25    35 ar
    30    26    27 1
    31    26    32 ar
    32    27    28 2
    33    27    29 1
    34    29    30 1
    35    29    31 1
    36    31    32 1
    37    32    33 ar
    38    33    34 ar
    39    34    35 ar
    40     1    36 1
    41     1    37 1
    42     2    38 1
    43     2    39 1
    44     4    40 1
    45     4    41 1
    46     4    42 1
    47     5    43 1
    48     5    44 1
    49     6    45 1
    50     6    46 1
    51     9    47 1
    52    13    48 1
    53    12    49 1
    54    12    50 1
    55    12    51 1
    56    14    52 1
    57    20    53 1
    58    21    54 1
    59    24    56 1
    60    35    57 1
    61    30    58 1
    62    30    59 1
    63    30    60 1
    64    31    61 1
    65    31    55 1
    66    33    62 1
    67    34    63 1
@<TRIPOS>SUBSTRUCTURE
     1 BIJ         1 TEMP              0 ****  ****    0 ROOT
