@<TRIPOS>MOLECULE
BIJ
   63    67     1     0     0
SMALL
bcc


@<TRIPOS>ATOM
      1 CBD          0.0000     0.0000     0.0000 c3         1 BIJ       0.196300
      2 CBF          1.5370     0.0000     0.0000 c3         1 BIJ       0.145300
      3 NBH          2.0320     0.0000     1.3870 n3         1 BIJ      -0.535600
      4 CBI          3.4870     0.2400     1.4020 c3         1 BIJ       0.184100
      5 CBG          1.7360    -1.3010     2.0260 c3         1 BIJ       0.145300
      6 CBE          0.2030    -1.4980     2.1550 c3         1 BIJ       0.196300
      7 NBC         -0.5780    -0.9970     0.9660 nh         1 BIJ      -0.415000
      8 CBA         -1.9160    -1.4510     0.7610 ca         1 BIJ       0.128600
      9 CAW         -2.6550    -0.9920    -0.3330 ca         1 BIJ      -0.302000
     10 CAQ         -3.9720    -1.4160    -0.5570 ca         1 BIJ       0.211100
     11 OAR         -4.6870    -0.9670    -1.6360 os         1 BIJ      -0.273900
     12 CAS         -3.8970    -0.2330    -2.6140 c3         1 BIJ       0.229700
     13 CAV         -2.5290    -2.3450     1.6470 ca         1 BIJ      -0.230000
     14 CAP         -3.8440    -2.7730     1.4350 ca         1 BIJ      -0.040000
     15 CAL         -4.5740    -2.3210     0.3270 ca         1 BIJ       0.023400
     16 NAH         -5.8450    -2.7040     0.0940 ne         1 BIJ      -0.401100
     17 C2          -6.3920    -3.9050     0.3610 cf         1 BIJ       0.668300
     18 N3          -5.7320    -4.8290     1.0900 nf         1 BIJ      -0.739000
     19 N1          -7.6320    -4.1730    -0.1070 nf         1 BIJ      -0.531000
     20 C6          -8.2170    -5.3420     0.1370 c2         1 BIJ       0.400200
     21 C5          -7.5480    -6.3160     0.8860 c3         1 BIJ      -0.177900
     22 Cl5         -8.2970    -7.8450     1.2190 cl         1 BIJ      -0.005400
     23 C4          -6.2710    -6.0320     1.3740 c2         1 BIJ       0.493200
     24 NAE         -5.5970    -6.9460     2.1070 nu         1 BIJ      -0.231600
     25 CAJ         -4.6900    -6.6150     3.0470 ca         1 BIJ       0.067600
     26 CAN         -4.9390    -6.8290     4.4180 ca         1 BIJ      -0.174600
     27 CAM         -6.0340    -7.3540     5.1280 c          1 BIJ       0.652100
     28 OAI         -7.0690    -7.7730     4.6040 o          1 BIJ      -0.694500
     29 NAU         -5.8210    -7.3410     6.4530 n          1 BIJ      -0.162800
     30 CAT         -6.7640    -7.8220     7.4960 c3         1 BIJ       0.124300
     31 CAX         -4.4910    -6.7960     6.7500 c3         1 BIJ       0.114300
     32 CAY         -3.9580    -6.4670     5.3550 ca         1 BIJ      -0.092300
     33 CBB         -2.7480    -5.9070     4.9420 ca         1 BIJ      -0.084000
     34 CAZ         -2.5000    -5.7000     3.5860 ca         1 BIJ      -0.065000
     35 CAO         -3.4670    -6.0590     2.6470 ca         1 BIJ      -0.101000
     36 HBD1        -0.3480    -0.2390    -0.9980 h1         1 BIJ       0.015950
     37 HBD2        -0.3480     0.9890     0.2710 h1         1 BIJ       0.015950
     38 HBF1         1.8960     0.8860    -0.5100 h1         1 BIJ       0.013450
     39 HBF2         1.8960    -0.8860    -0.5100 h1         1 BIJ       0.013450
     40 HBI1         3.6990     1.2030     0.9540 h1         1 BIJ       0.002367
     41 HBI2         3.9870    -0.5380     0.8380 h1         1 BIJ       0.002367
     42 HBI3         3.8440     0.2310     2.4250 h1         1 BIJ       0.002367
     43 HBG1         2.1490    -2.0980     1.4200 h1         1 BIJ       0.013450
     44 HBG2         2.1840    -1.3240     3.0120 h1         1 BIJ       0.013450
     45 HBE1         0.0020    -2.5550     2.2780 h1         1 BIJ       0.015950
     46 HBE2        -0.1380    -0.9710     3.0380 h1         1 BIJ       0.015950
     47 HAW         -2.2010    -0.2910    -1.0220 ha         1 BIJ       0.130000
     48 HAV         -1.9810    -2.7060     2.5090 ha         1 BIJ       0.109000
     49 HAS1        -4.5050    -0.0280    -3.4870 h1         1 BIJ      -0.003300
     50 HAS2        -3.5620     0.7010    -2.1800 h1         1 BIJ      -0.003300
     51 HAS3        -3.0380    -0.8260    -2.9020 h1         1 BIJ      -0.003300
     52 HAP         -4.3000    -3.4690     2.1290 ha         1 BIJ       0.134000
     53 H6          -9.2260    -5.5260    -0.2120 h4         1 BIJ       0.007800
     54 H5          -7.1160    -6.7200    -0.0210 h1         1 BIJ       0.046700
     55 HX2         -4.5700    -5.8980     7.3520 h1         1 BIJ       0.030200
     56 HAE         -5.7790    -7.9160     1.9430 hn         1 BIJ       0.295800
     57 HAO         -3.2740    -5.8980     1.5930 ha         1 BIJ       0.131000
     58 HAT1        -6.9680    -8.8740     7.3410 h1         1 BIJ       0.010367
     59 HAT2        -6.3230    -7.6800     8.4750 h1         1 BIJ       0.010367
     60 HAT3        -7.6890    -7.2620     7.4320 h1         1 BIJ       0.010367
     61 HAX         -3.8700    -7.5400     7.2330 h1         1 BIJ       0.030200
     62 HBB         -2.0020    -5.6310     5.6770 ha         1 BIJ       0.106000
     63 HAZ         -1.5590    -5.2720     3.2630 ha         1 BIJ       0.109000
@<TRIPOS>BOND
     1     1     2 1   
     2     1     7 1   
     3     1    36 1   
     4     1    37 1   
     5     2     3 1   
     6     2    38 1   
     7     2    39 1   
     8     3     4 1   
     9     3     5 1   
    10     4    40 1   
    11     4    41 1   
    12     4    42 1   
    13     5     6 1   
    14     5    43 1   
    15     5    44 1   
    16     6     7 1   
    17     6    45 1   
    18     6    46 1   
    19     7     8 1   
    20     8     9 ar  
    21     8    13 ar  
    22     9    10 ar  
    23     9    47 1   
    24    10    11 1   
    25    10    15 ar  
    26    11    12 1   
    27    12    49 1   
    28    12    50 1   
    29    12    51 1   
    30    13    14 ar  
    31    13    48 1   
    32    14    15 ar  
    33    14    52 1   
    34    15    16 1   
    35    16    17 2   
    36    17    18 1   
    37    17    19 1   
    38    18    23 2   
    39    19    20 2   
    40    20    21 1   
    41    20    53 1   
    42    21    22 1   
    43    21    23 1   
    44    21    54 1   
    45    23    24 1   
    46    24    25 1   
    47    24    56 1   
    48    25    26 ar  
    49    25    35 ar  
    50    26    27 1   
    51    26    32 ar  
    52    27    28 2   
    53    27    29 1   
    54    29    30 1   
    55    29    31 1   
    56    30    58 1   
    57    30    59 1   
    58    30    60 1   
    59    31    32 1   
    60    31    55 1   
    61    31    61 1   
    62    32    33 ar  
    63    33    34 ar  
    64    33    62 1   
    65    34    35 ar  
    66    34    63 1   
    67    35    57 1   
@<TRIPOS>SUBSTRUCTURE
     1 BIJ         1 TEMP              0 ****  ****    0 ROOT
