@<TRIPOS>MOLECULE
molecule
   22    23     1     0     0
SMALL
bcc


@<TRIPOS>ATOM
      1 O6           0.0000     0.0000     0.0000 oh         1 BIK      -0.513100
      2 C6           1.3290     0.0000     0.0000 ca         1 BIK       0.061100
      3 C7           2.0250     0.0000     1.2130 ca         1 BIK      -0.170000
      4 C8           3.4270     0.0060     1.2840 ca         1 BIK      -0.123000
      5 C8A          4.2090     0.0090     0.1270 ca         1 BIK      -0.015000
      6 C4A          3.5540     0.0130    -1.1080 ca         1 BIK      -0.049000
      7 C5           2.1320     0.0090    -1.1680 ca         1 BIK      -0.134000
      8 C4           4.3670     0.0230    -2.2650 ca         1 BIK      -0.093000
      9 C1           5.6180     0.0370     0.2180 ca         1 BIK      -0.261000
     10 C2           6.4320     0.0390    -0.9300 ca         1 BIK       0.181100
     11 O2           7.7180     0.0140    -0.8080 oh         1 BIK      -0.453100
     12 C3           5.7880     0.0170    -2.1860 ca         1 BIK      -0.134600
     13 C31          6.6190     0.0120    -3.4590 c          1 BIK       0.901200
     14 O32          6.0760    -0.0090    -4.6030 o          1 BIK      -0.819300
     15 O31          7.8550     0.0150    -3.3440 o          1 BIK      -0.819300
     16 HO6         -0.3140    -0.8720    -0.1710 ho         1 BIK       0.406000
     17 H7           1.4590    -0.0040     2.1370 ha         1 BIK       0.114000
     18 H8           3.9110     0.0050     2.2530 ha         1 BIK       0.117000
     19 H5           1.6490     0.0130    -2.1370 ha         1 BIK       0.127000
     20 H4           3.8940     0.0060    -3.2400 ha         1 BIK       0.153000
     21 H1           6.0840     0.0570     1.1960 ha         1 BIK       0.113000
     22 HO2          8.0050     0.7830    -0.3460 ho         1 BIK       0.410000
@<TRIPOS>BOND
     1     1     2 1
     2     1    16 1
     3     2     3 ar
     4     2     7 ar
     5     3     4 ar
     6     3    17 1
     7     4     5 ar
     8     4    18 1
     9     5     6 ar
    10     5     9 ar
    11     6     7 ar
    12     6     8 ar
    13     7    19 1
    14     8    12 ar
    15     8    20 1
    16     9    10 ar
    17     9    21 1
    18    10    11 1
    19    10    12 ar
    20    11    22 1
    21    12    13 1
    22    13    14 1
    23    13    15 1
@<TRIPOS>SUBSTRUCTURE
     1 BIK         1 TEMP              0 ****  ****    0 ROOT
