@<TRIPOS>MOLECULE
BIK
   22    23     1     0     0
SMALL
bcc


@<TRIPOS>ATOM
      1 O6          0.0220   -0.2220    0.0210 oh        1 BIK     -0.519100
      2 C6          1.4030   -0.1360    0.0330 ca        1 BIK      0.076100
      3 C7          2.0030   -0.0580    1.3200 ca        1 BIK     -0.152000
      4 C8          3.3680    0.0290    1.4160 ca        1 BIK     -0.108000
      5 C8A         4.1910    0.0440    0.2550 ca        1 BIK     -0.022000
      6 C4A         3.5790   -0.0340   -1.0240 ca        1 BIK     -0.053000
      7 C5          2.1660   -0.1250   -1.1170 ca        1 BIK     -0.184000
      8 C4          4.4010   -0.0200   -2.1830 ca        1 BIK     -0.083000
      9 C1          5.5990    0.1340    0.3450 ca        1 BIK     -0.229000
     10 C2          6.3770    0.1460   -0.8070 ca        1 BIK      0.191100
     11 O2          7.7260    0.2360   -0.6100 oh        1 BIK     -0.548100
     12 C3          5.7720    0.0680   -2.1010 ca        1 BIK     -0.184600
     13 C31         6.5820    0.0770   -3.3870 c         1 BIK      0.915200
     14 O32         5.9610    0.0020   -4.4810 o         1 BIK     -0.826300
     15 O31         7.8460    0.1610   -3.3080 o         1 BIK     -0.826300
     16 HO6        -0.2550   -0.2680   -0.9040 ho        1 BIK      0.407000
     17 H7          1.3550   -0.0700    2.2060 ha        1 BIK      0.129000
     18 H8          3.8530    0.0900    2.4020 ha        1 BIK      0.121000
     19 H5          1.7000   -0.1850   -2.1110 ha        1 BIK      0.127000
     20 H4          3.9360   -0.0800   -3.1820 ha        1 BIK      0.156000
     21 H1          6.0790    0.1950    1.3300 ha        1 BIK      0.128000
     22 HO2         8.1810    0.2380   -1.4810 ho        1 BIK      0.485000
@<TRIPOS>BOND
     1    1    2 1   
     2    1   16 1   
     3    2    3 ar  
     4    2    7 ar  
     5    3    4 ar  
     6    3   17 1   
     7    4    5 ar  
     8    4   18 1   
     9    5    6 ar  
    10    5    9 ar  
    11    6    7 ar  
    12    6    8 ar  
    13    7   19 1   
    14    8   12 ar  
    15    8   20 1   
    16    9   10 ar  
    17    9   21 1   
    18   10   11 1   
    19   10   12 ar  
    20   11   22 1   
    21   12   13 1   
    22   13   14 1   
    23   13   15 1   
@<TRIPOS>SUBSTRUCTURE
     1 BIK         1 TEMP              0 ****  ****    0 ROOT
