@<TRIPOS>MOLECULE
BIM
   74    80     1     0     0
SMALL
bcc


@<TRIPOS>ATOM
      1 C1         -0.1110   -0.7460   -0.0050 c         1 BIM      0.699700
      2 C3          1.3680   -0.4040    0.0480 cc        1 BIM     -0.087200
      3 C4          0.5460   -0.7030    2.2170 c         1 BIM      0.698700
      4 C5          1.7710   -0.4080    1.3560 cd        1 BIM     -0.006200
      5 C6          3.0570   -0.1840    1.9190 cd        1 BIM     -0.130200
      6 C7          3.6260   -0.7440    3.1350 ca        1 BIM     -0.059800
      7 C8          4.0430    0.6500    1.3630 cc        1 BIM     -0.045100
      8 N10         5.1730    0.6760    2.1710 na        1 BIM     -0.063400
      9 C11         2.0650   -0.1510   -1.1730 cc        1 BIM     -0.110200
     10 C12         2.3070   -1.0960   -2.1770 cd        1 BIM     -0.051100
     11 C15         3.0940    0.8680   -2.9870 ca        1 BIM     -0.045200
     12 C16         3.1780   -1.6430    4.1040 ca        1 BIM     -0.076000
     13 C17         4.0200   -1.9840    5.1540 ca        1 BIM     -0.152000
     14 C18         5.8000   -0.5480    4.3200 ca        1 BIM     -0.144000
     15 C19         5.3120   -1.4440    5.2600 ca        1 BIM     -0.116000
     16 C21         3.0980    3.4430   -1.9440 ca        1 BIM     -0.153000
     17 C23         3.6350    3.1850   -3.2170 ca        1 BIM     -0.120000
     18 O25        -0.8450   -0.8930   -0.9830 o         1 BIM     -0.572500
     19 C27         4.5650   -1.3450   -5.0000 c3        1 BIM     -0.092400
     20 C30         5.9080   -2.7450   -1.9240 ca        1 BIM     -0.242300
     21 C32         6.7540   -2.4110   -0.8740 ca        1 BIM     -0.092000
     22 C33         7.9990   -0.9980   -2.3900 ca        1 BIM      0.581200
     23 C34         7.8120   -1.5130   -1.0730 ca        1 BIM     -0.162600
     24 C35         6.3820    1.3970    1.8900 c3        1 BIM      0.041300
     25 C36         7.2680    0.7990    0.7960 c3        1 BIM     -0.103400
     26 C37         8.6800   -1.1510    0.0790 c3        1 BIM     -0.032100
     27 C38         7.9020   -0.5080    1.2140 c3        1 BIM     -0.078400
     28 C40         9.9440   -0.5240   -3.7550 c3        1 BIM      0.156100
     29 C13         2.5540    1.1230   -1.6690 ca        1 BIM     -0.074800
     30 C20         2.5570    2.4270   -1.1690 ca        1 BIM     -0.101000
     31 C22         3.6400    1.9070   -3.7550 ca        1 BIM     -0.134000
     32 N14         2.9480   -0.5010   -3.2660 na        1 BIM     -0.066400
     33 C26         3.1210   -1.1100   -4.5540 c3        1 BIM      0.041300
     34 C28         5.2270   -2.5310   -4.3290 c3        1 BIM     -0.123700
     35 C29         6.1390   -2.1650   -3.1910 ca        1 BIM      0.420600
     36 N31         7.1660   -1.3230   -3.4220 nb        1 BIM     -0.701000
     37 N39         9.1170   -0.1110   -2.6380 nh        1 BIM     -0.722300
     38 C41         8.7040    1.2760   -2.7260 c3        1 BIM      0.156100
     39 O24         0.4370   -0.7540    3.4440 o         1 BIM     -0.570500
     40 N2         -0.5370   -0.9020    1.3340 n         1 BIM     -0.634500
     41 C9          4.9600   -0.1960    3.2530 ca        1 BIM     -0.054200
     42 H8          3.9950    1.2370    0.4380 h4        1 BIM      0.188000
     43 H12         2.0630   -2.1620   -2.1860 h4        1 BIM      0.172000
     44 H16         2.1620   -2.0610    4.0430 ha        1 BIM      0.153000
     45 H17         3.6710   -2.6890    5.9230 ha        1 BIM      0.132000
     46 H18         6.8120   -0.1320    4.4060 ha        1 BIM      0.131000
     47 H19         5.9490   -1.7380    6.1080 ha        1 BIM      0.130000
     48 H21         3.1020    4.4750   -1.5620 ha        1 BIM      0.131000
     49 H23         4.0540    4.0190   -3.8000 ha        1 BIM      0.131000
     50 H271        4.5230   -1.5400   -6.1060 hc        1 BIM      0.064200
     51 H272        5.1680   -0.4100   -4.8560 hc        1 BIM      0.064200
     52 H30         5.0720   -3.4400   -1.7730 ha        1 BIM      0.143000
     53 H32         6.5920   -2.8460    0.1250 ha        1 BIM      0.145000
     54 H351        6.0920    2.4420    1.5750 h1        1 BIM      0.061200
     55 H352        6.9750    1.4680    2.8460 h1        1 BIM      0.061200
     56 H361        8.0690    1.5500    0.5640 hc        1 BIM      0.058200
     57 H362        6.6700    0.6460   -0.1410 hc        1 BIM      0.058200
     58 H371        9.5070   -0.4590   -0.2310 hc        1 BIM      0.062700
     59 H372        9.1650   -2.0900    0.4650 hc        1 BIM      0.062700
     60 H381        7.1100   -1.2160    1.5760 hc        1 BIM      0.046700
     61 H382        8.6020   -0.3270    2.0730 hc        1 BIM      0.046700
     62 H401       10.1790   -1.6150   -3.6560 h1        1 BIM      0.038700
     63 H402       10.8990    0.0620   -3.7030 h1        1 BIM      0.038700
     64 H403        9.4690   -0.3480   -4.7580 h1        1 BIM      0.038700
     65 H20         2.1250    2.6400   -0.1810 ha        1 BIM      0.139000
     66 H22         4.0560    1.7100   -4.7530 ha        1 BIM      0.136000
     67 H261        2.5700   -2.0940   -4.5520 h1        1 BIM      0.058200
     68 H262        2.6320   -0.4380   -5.3220 h1        1 BIM      0.058200
     69 H281        5.8360   -3.0870   -5.0950 hc        1 BIM      0.054200
     70 H282        4.4460   -3.2430   -3.9500 hc        1 BIM      0.054200
     71 H411        9.6280    1.9120   -2.7520 h1        1 BIM      0.038700
     72 H412        8.1080    1.5350   -1.8110 h1        1 BIM      0.038700
     73 H413        8.0860    1.5030   -3.6360 h1        1 BIM      0.038700
     74 HN2        -1.4620   -1.1010    1.6150 hn        1 BIM      0.345500
@<TRIPOS>BOND
     1    1    2 1   
     2    1   18 2   
     3    1   40 1   
     4    2    4 2   
     5    2    9 1   
     6    3    4 1   
     7    3   39 2   
     8    3   40 1   
     9    4    5 1   
    10    5    6 1   
    11    5    7 2   
    12    6   12 ar  
    13    6   41 ar  
    14    7    8 1   
    15    7   42 1   
    16    8   24 1   
    17    8   41 1   
    18    9   10 2   
    19    9   29 1   
    20   10   32 1   
    21   10   43 1   
    22   11   29 ar  
    23   11   31 ar  
    24   11   32 1   
    25   12   13 ar  
    26   12   44 1   
    27   13   15 ar  
    28   13   45 1   
    29   14   15 ar  
    30   14   41 ar  
    31   14   46 1   
    32   15   47 1   
    33   16   17 ar  
    34   16   30 ar  
    35   16   48 1   
    36   17   31 ar  
    37   17   49 1   
    38   19   33 1   
    39   19   34 1   
    40   19   50 1   
    41   19   51 1   
    42   20   21 ar  
    43   20   35 ar  
    44   20   52 1   
    45   21   23 ar  
    46   21   53 1   
    47   22   23 ar  
    48   22   36 ar  
    49   22   37 1   
    50   23   26 1   
    51   24   25 1   
    52   24   54 1   
    53   24   55 1   
    54   25   27 1   
    55   25   56 1   
    56   25   57 1   
    57   26   27 1   
    58   26   58 1   
    59   26   59 1   
    60   27   60 1   
    61   27   61 1   
    62   28   37 1   
    63   28   62 1   
    64   28   63 1   
    65   28   64 1   
    66   29   30 ar  
    67   30   65 1   
    68   31   66 1   
    69   32   33 1   
    70   33   67 1   
    71   33   68 1   
    72   34   35 1   
    73   34   69 1   
    74   34   70 1   
    75   35   36 ar  
    76   37   38 1   
    77   38   71 1   
    78   38   72 1   
    79   38   73 1   
    80   40   74 1   
@<TRIPOS>SUBSTRUCTURE
     1 BIM         1 TEMP              0 ****  ****    0 ROOT
