@<TRIPOS>MOLECULE
BIN
   47    49     1     0     0
SMALL
bcc


@<TRIPOS>ATOM
      1 C1          0.1120   -0.0580   -0.1040 ce        1 BIN     -0.137200
      2 C2          0.9830   -1.1820    0.2710 c3        1 BIN      0.364400
      3 C3          1.8750   -0.7510    1.4470 c3        1 BIN     -0.050200
      4 C4          2.2070    0.7050    1.4400 c2        1 BIN     -0.149200
      5 C5          1.4940    1.6700    0.8160 cf        1 BIN     -0.112000
      6 C6          0.3200    1.2750    0.0820 cf        1 BIN     -0.055200
      7 C7         -1.2310   -0.3010   -0.5680 ce        1 BIN      0.044000
      8 C8         -1.8970    0.9050   -0.8080 ce        1 BIN     -0.295300
      9 C9         -3.1800   -1.6050   -0.9500 cf        1 BIN      0.041900
     10 C11        -3.2560    0.8440   -1.1980 c1        1 BIN     -0.047900
     11 C12        -1.8240   -1.5660   -0.5620 cf        1 BIN     -0.229200
     12 C13        -0.9850   -2.6500   -0.0500 c         1 BIN      0.771800
     13 C14        -4.0000   -2.9360   -1.0060 c         1 BIN      0.907600
     14 C15        -2.6040    3.5620    0.2830 c3        1 BIN      0.118700
     15 C16        -6.2020   -0.5710   -0.5560 c3        1 BIN     -0.122100
     16 C18        -0.9260    2.0390   -0.4660 c3        1 BIN      0.470000
     17 C19         2.4890    4.4320   -3.1410 c2        1 BIN     -0.161200
     18 C20         2.7310    3.9660   -1.9180 c2        1 BIN     -0.237000
     19 C21         1.4160    3.9280   -4.0230 c3        1 BIN     -0.079900
     20 N10        -3.8080   -0.4140   -1.2760 nh        1 BIN     -0.031600
     21 O3A        -1.1630   -3.8600    0.0050 o         1 BIN     -0.523500
     22 O3B         0.2410   -2.3420    0.6050 os        1 BIN     -0.445900
     23 O4A        -4.0920   -3.4640   -2.1370 o         1 BIN     -0.771800
     24 O4B        -4.5210   -3.2950    0.0740 o         1 BIN     -0.771800
     25 O8A        -1.3370    2.9610    0.5240 os        1 BIN     -0.450600
     26 O8         -0.6250    2.8160   -1.5990 oh        1 BIN     -0.593800
     27 CL2         2.0480   -1.5740   -1.1440 cl        1 BIN     -0.230400
     28 H3          1.3290   -0.9910    2.4030 hc        1 BIN      0.080700
     29 H4          2.8190   -1.3580    1.4400 hc        1 BIN      0.080700
     30 H5          3.0920    0.9690    2.0400 ha        1 BIN      0.123000
     31 H6          1.7570    2.7350    0.8740 ha        1 BIN      0.137000
     32 H151       -2.5440    4.2150   -0.6220 h1        1 BIN      0.045367
     33 H152       -2.7920    4.1700    1.2030 h1        1 BIN      0.045367
     34 H153       -3.3960    2.7840    0.1410 h1        1 BIN      0.045367
     35 H161       -5.4130    0.4670   -2.2950 h1        1 BIN      0.077200
     36 H162       -6.0170   -1.5010    0.0410 hc        1 BIN      0.050367
     37 H163       -6.1310    0.3150    0.1180 hc        1 BIN      0.050367
     38 H171       -7.2310   -0.6160   -0.9850 hc        1 BIN      0.050367
     39 H172       -5.3280   -1.3670   -2.3790 h1        1 BIN      0.077200
     40 H19        -0.0330    3.5220   -1.3070 ho        1 BIN      0.407000
     41 H201        3.1030    5.2420   -3.5690 ha        1 BIN      0.105000
     42 H202        2.1440    3.1530   -1.4640 ha        1 BIN      0.112000
     43 H203        3.5400    4.3590   -1.2900 ha        1 BIN      0.112000
     44 H211        1.8630    3.4250   -4.9170 hc        1 BIN      0.050033
     45 H212        0.7550    3.1920   -3.4980 hc        1 BIN      0.050033
     46 H213        0.7820    4.7770   -4.3820 hc        1 BIN      0.050033
     47 C17        -5.2090   -0.4700   -1.7030 c3        1 BIN      0.027300
@<TRIPOS>BOND
     1    1    2 1   
     2    1    6 2   
     3    1    7 1   
     4    2    3 1   
     5    2   22 1   
     6    2   27 1   
     7    3    4 1   
     8    3   28 1   
     9    3   29 1   
    10    4    5 2   
    11    4   30 1   
    12    5    6 1   
    13    5   31 1   
    14    6   16 1   
    15    7    8 1   
    16    7   11 2   
    17    8   10 2   
    18    8   16 1   
    19    9   11 1   
    20    9   13 2   
    21    9   20 1   
    22   10   20 2   
    23   11   12 1   
    24   12   21 2   
    25   12   22 1   
    26   13   23 1   
    27   13   24 1   
    28   14   25 1   
    29   14   32 1   
    30   14   33 1   
    31   14   34 1   
    32   15   36 1   
    33   15   37 1   
    34   15   38 1   
    35   15   47 1   
    36   16   25 1   
    37   16   26 1   
    38   17   18 2   
    39   17   19 1   
    40   17   41 1   
    41   18   42 1   
    42   18   43 1   
    43   19   44 1   
    44   19   45 1   
    45   19   46 1   
    46   20   47 1   
    47   26   40 1   
    48   35   47 1   
    49   39   47 1   
@<TRIPOS>SUBSTRUCTURE
     1 BIN         1 TEMP              0 ****  ****    0 ROOT
