@<TRIPOS>MOLECULE
molecule
   47    48     1     0     0
SMALL
bcc


@<TRIPOS>ATOM
      1 C1           0.0000     0.0000     0.0000 cp         1 BIN      -0.032000
      2 C2           1.5600     0.0000     0.0000 ca         1 BIN       0.046400
      3 C3           2.2790     0.0000     1.2860 ca         1 BIN      -0.160000
      4 C4           1.4470    -0.0240     2.5430 ca         1 BIN      -0.120000
      5 C5           0.0760    -0.0330     2.5790 ca         1 BIN      -0.137000
      6 C6          -0.6500    -0.0150     1.3280 ca         1 BIN      -0.096000
      7 C7          -0.8680    -0.0030    -1.3230 cp         1 BIN       0.176000
      8 C8          -1.7220     1.4560    -1.5300 ca         1 BIN      -0.195600
      9 C9          -3.0950    -1.3010    -1.2350 ca         1 BIN       0.172100
     10 C11         -3.1530     1.4590    -1.4070 ca         1 BIN       0.033400
     11 C12         -1.6080    -1.3350    -1.4370 ca         1 BIN      -0.149600
     12 C13         -0.7480    -2.6750    -1.6540 c          1 BIN       0.904200
     13 C14         -3.8730    -2.5560    -1.2800 c          1 BIN       0.915200
     14 C15         -4.1260     2.6220    -1.6320 c3         1 BIN      -0.031800
     15 C16         -4.8750     0.2290     1.3910 c3         1 BIN      -0.114100
     16 C18         -0.8500     2.7760    -1.9140 c          1 BIN       0.667700
     17 C19          1.3260     3.6630    -2.9810 c3         1 BIN       0.168100
     18 C20          2.1510     3.9690    -1.6820 c3         1 BIN      -0.098600
     19 C21          2.1160     3.1130    -4.1570 c3         1 BIN      -0.098600
     20 N10         -3.7570     0.1150    -0.9500 na         1 BIN      -0.205100
     21 O3A         -1.0250    -3.8210    -1.2320 o          1 BIN      -0.757800
     22 O3B          0.3780    -2.5910    -2.2550 o          1 BIN      -0.757800
     23 O4A         -4.5780    -2.7740    -2.3170 o          1 BIN      -0.730300
     24 O4B         -3.6800    -3.2440    -0.2410 o          1 BIN      -0.730300
     25 O8A         -1.2270     3.8980    -1.6930 o          1 BIN      -0.552000
     26 O8           0.3670     2.4720    -2.5000 os         1 BIN      -0.448900
     27 Cl2          2.4720    -0.0180    -1.3640 cl         1 BIN      -0.023400
     28 H3           3.3610     0.0030     1.3260 ha         1 BIN       0.145000
     29 H4           1.9730    -0.0310     3.4900 ha         1 BIN       0.112000
     30 H5          -0.4530    -0.0470     3.5250 ha         1 BIN       0.135000
     31 H6          -1.7320    -0.0190     1.3660 ha         1 BIN       0.134000
     32 H151        -5.0600     2.2400    -2.0250 hc         1 BIN       0.060033
     33 H152        -3.6960     3.3220    -2.3380 hc         1 BIN       0.060033
     34 H153        -4.3100     3.1250    -0.6900 hc         1 BIN       0.060033
     35 H161        -5.8660     0.3410     1.8130 hc         1 BIN       0.046367
     36 H162        -4.2540     1.0620     1.7000 hc         1 BIN       0.046367
     37 H163        -4.4360    -0.6980     1.7410 hc         1 BIN       0.046367
     38 H171        -5.5630    -0.7070    -0.3410 h1         1 BIN       0.056200
     39 H172        -5.5380     1.0360    -0.4140 h1         1 BIN       0.056200
     40 H19          0.7530     4.5310    -3.2860 h1         1 BIN       0.062700
     41 H201         1.4720     4.1560    -0.8590 hc         1 BIN       0.049867
     42 H202         2.7800     3.1190    -1.4450 hc         1 BIN       0.049867
     43 H203         2.7700     4.8430    -1.8440 hc         1 BIN       0.049867
     44 H211         1.4320     2.7900    -4.9320 hc         1 BIN       0.049867
     45 H212         2.7130     2.2710    -3.8280 hc         1 BIN       0.049867
     46 H213         2.7660     3.8860    -4.5480 hc         1 BIN       0.049867
     47 C17         -4.9710     0.1680    -0.0990 c3         1 BIN       0.036300
@<TRIPOS>BOND
     1     1     2 ar
     2     1     6 ar
     3     1     7 1
     4     2     3 ar
     5     2    27 1
     6     3     4 ar
     7     3    28 1
     8     4     5 ar
     9     4    29 1
    10     5     6 ar
    11     5    30 1
    12     6    31 1
    13     7     8 ar
    14     7    11 ar
    15     8    10 ar
    16     8    16 1
    17     9    11 ar
    18     9    13 1
    19     9    20 2
    20    10    14 1
    21    10    20 1
    22    11    12 1
    23    12    21 1
    24    12    22 1
    25    13    23 1
    26    13    24 1
    27    14    32 1
    28    14    33 1
    29    14    34 1
    30    15    47 1
    31    15    35 1
    32    15    36 1
    33    15    37 1
    34    47    20 1
    35    47    38 1
    36    47    39 1
    37    16    25 2
    38    16    26 1
    39    17    18 1
    40    17    19 1
    41    17    26 1
    42    17    40 1
    43    18    41 1
    44    18    42 1
    45    18    43 1
    46    19    44 1
    47    19    45 1
    48    19    46 1
@<TRIPOS>SUBSTRUCTURE
     1 BIN         1 TEMP              0 ****  ****    0 ROOT
