@<TRIPOS>MOLECULE
BIO
   28    29     1     0     0
SMALL
bcc


@<TRIPOS>ATOM
      1 N1         -0.0590   -0.0280   -0.1270 nc        1 BIO     -0.736700
      2 N2          1.9530    0.2140   -1.3570 nh        1 BIO     -0.893800
      3 C2          1.2810    0.0910   -0.1230 cd        1 BIO      0.690800
      4 N3          2.0630    0.1580    1.0480 n         1 BIO     -0.511400
      5 C4          1.4710    0.1810    2.3260 c         1 BIO      0.622000
      6 O4          2.2240    0.2680    3.3060 o         1 BIO     -0.582500
      7 C4A        -0.0080    0.0870    2.3530 ca        1 BIO      0.171500
      8 C8A        -0.7180   -0.0140    1.1010 ca        1 BIO      0.570000
      9 N8         -2.1020   -0.1080    1.1060 nb        1 BIO     -0.625000
     10 C7         -2.6940   -0.0920    2.2940 ca        1 BIO      0.362900
     11 C6         -1.9790    0.0170    3.5370 ca        1 BIO      0.239300
     12 N5         -0.6430    0.1010    3.5580 nb        1 BIO     -0.569000
     13 C9         -2.7650    0.0240    4.8300 c3        1 BIO      0.112800
     14 O9         -2.4420    1.1330    5.6430 oh        1 BIO     -0.584800
     15 C10        -2.5520   -1.2970    5.6020 c3        1 BIO      0.108100
     16 O10        -3.0560   -2.3290    4.7610 oh        1 BIO     -0.601800
     17 C11        -3.2860   -1.2690    6.9290 c3        1 BIO     -0.132100
     18 HN21        1.3820    0.0690   -2.1630 hn        1 BIO      0.426800
     19 HN22        2.8560   -0.2000   -1.4070 hn        1 BIO      0.426800
     20 H3          3.0510    0.2810    0.9960 hn        1 BIO      0.338500
     21 H7         -3.7970   -0.1760    2.2920 h4        1 BIO      0.044100
     22 H9         -3.8610    0.1540    4.6010 h1        1 BIO      0.093700
     23 HO9        -1.5050    1.0740    5.8760 ho        1 BIO      0.419000
     24 H10        -1.4500   -1.4580    5.7740 h1        1 BIO      0.051700
     25 HO1        -2.9920   -3.1490    5.2650 ho        1 BIO      0.408000
     26 H111       -4.3890   -1.2490    6.7610 hc        1 BIO      0.050033
     27 H112       -2.9940   -0.3570    7.5030 hc        1 BIO      0.050033
     28 H113       -3.0320   -2.1750    7.5290 hc        1 BIO      0.050033
@<TRIPOS>BOND
     1    1    3 2   
     2    1    8 1   
     3    2    3 1   
     4    2   18 1   
     5    2   19 1   
     6    3    4 1   
     7    4    5 1   
     8    4   20 1   
     9    5    6 2   
    10    5    7 1   
    11    7    8 ar  
    12    7   12 ar  
    13    8    9 ar  
    14    9   10 ar  
    15   10   11 ar  
    16   10   21 1   
    17   11   12 ar  
    18   11   13 1   
    19   13   14 1   
    20   13   15 1   
    21   13   22 1   
    22   14   23 1   
    23   15   16 1   
    24   15   17 1   
    25   15   24 1   
    26   16   25 1   
    27   17   26 1   
    28   17   27 1   
    29   17   28 1   
@<TRIPOS>SUBSTRUCTURE
     1 BIO         1 TEMP              0 ****  ****    0 ROOT
