@<TRIPOS>MOLECULE
BIP
   23    23     1     0     0
SMALL
bcc


@<TRIPOS>ATOM
      1 C1          0.7880   -0.5080   -0.3520 c         1 BIP      0.916600
      2 O1          0.1200   -1.4460    0.1640 o         1 BIP     -0.831800
      3 O2          0.8180   -0.2490   -1.5870 o         1 BIP     -0.831800
      4 C2          1.6410    0.3690    0.6260 c3        1 BIP     -0.193700
      5 C3          0.7190    0.8510    1.7120 c3        1 BIP      0.139500
      6 I           1.6420    1.5970    3.4330 i         1 BIP     -0.375900
      7 C           2.3300    1.5220   -0.0870 c3        1 BIP     -0.032100
      8 C1'         3.7060    1.1780   -0.5440 ca        1 BIP     -0.049300
      9 C2'         3.8820    0.2390   -1.5720 ca        1 BIP     -0.129000
     10 C3'         5.1620   -0.0720   -2.0240 ca        1 BIP     -0.147000
     11 C4'         6.2780    0.5470   -1.4580 ca        1 BIP     -0.156000
     12 C5'         6.1090    1.4780   -0.4360 ca        1 BIP     -0.147000
     13 C6'         4.8290    1.7920    0.0210 ca        1 BIP     -0.129000
     14 H2          2.4090   -0.3270    1.0590 hc        1 BIP      0.058700
     15 H31         0.0700    1.6760    1.3440 h1        1 BIP      0.077200
     16 H32         0.0830   -0.0010    2.0560 h1        1 BIP      0.077200
     17 H1          2.3760    2.4200    0.5850 hc        1 BIP      0.050700
     18 H2A         1.7140    1.7950   -0.9900 hc        1 BIP      0.050700
     19 H2'         2.9800   -0.2420   -2.0000 ha        1 BIP      0.159000
     20 H3'         5.2920   -0.8100   -2.8280 ha        1 BIP      0.112500
     21 H4'         7.2870    0.2980   -1.8170 ha        1 BIP      0.107000
     22 H5'         6.9850    1.9640    0.0150 ha        1 BIP      0.112500
     23 H6'         4.7020    2.5230    0.8330 ha        1 BIP      0.159000
@<TRIPOS>BOND
     1    1    2 1   
     2    1    3 1   
     3    1    4 1   
     4    4    5 1   
     5    4    7 1   
     6    4   14 1   
     7    5    6 1   
     8    5   15 1   
     9    5   16 1   
    10    7    8 1   
    11    7   17 1   
    12    7   18 1   
    13    8    9 ar  
    14    8   13 ar  
    15    9   10 ar  
    16    9   19 1   
    17   10   11 ar  
    18   10   20 1   
    19   11   12 ar  
    20   11   21 1   
    21   12   13 ar  
    22   12   22 1   
    23   13   23 1   
@<TRIPOS>SUBSTRUCTURE
     1 BIP         1 TEMP              0 ****  ****    0 ROOT
