@<TRIPOS>MOLECULE
molecule
   23    23     1     0     0
SMALL
bcc


@<TRIPOS>ATOM
      1 C1           0.0000     0.0000     0.0000 c          1 BIP       0.882600
      2 O1          -0.6040     0.9050    -0.5230 o          1 BIP      -0.829300
      3 O2          -0.6700    -1.0080     0.5810 o          1 BIP      -0.829300
      4 C2           1.5070     0.0000     0.0000 c3         1 BIP      -0.172700
      5 C3           2.0180     0.0000     1.4400 c3         1 BIP       0.126500
      6 I            1.2980    -1.7660     2.4600 i          1 BIP      -0.282900
      7 C            2.0160     1.2490    -0.7220 c3         1 BIP      -0.022100
      8 C1'          3.5240     1.2490    -0.7230 ca         1 BIP      -0.058300
      9 C2'          4.2140     0.6530    -1.7600 ca         1 BIP      -0.131000
     10 C3'          5.5950     0.6530    -1.7610 ca         1 BIP      -0.135000
     11 C4'          6.2870     1.2520    -0.7250 ca         1 BIP      -0.155000
     12 C5'          5.5970     1.8500     0.3120 ca         1 BIP      -0.135000
     13 C6'          4.2140     1.8530     0.3100 ca         1 BIP      -0.131000
     14 H2           1.8670    -0.8850    -0.5110 hc         1 BIP       0.053700
     15 H31          1.6570     0.8840     1.9510 h1         1 BIP       0.047200
     16 H32          3.1010    -0.0000     1.4390 h1         1 BIP       0.047200
     17 H1           1.6550     1.2480    -1.7430 hc         1 BIP       0.059700
     18 H2A          1.6550     2.1340    -0.2120 hc         1 BIP       0.059700
     19 H2'          3.6720     0.1830    -2.5720 ha         1 BIP       0.132500
     20 H3'          6.1360     0.1850    -2.5740 ha         1 BIP       0.114000
     21 H4'          7.3700     1.2510    -0.7250 ha         1 BIP       0.111000
     22 H5'          6.1390     2.3210     1.1230 ha         1 BIP       0.114000
     23 H6'          3.6720     2.3220     1.1230 ha         1 BIP       0.132500
@<TRIPOS>BOND
     1     1     2 1
     2     1     3 1
     3     1     4 1
     4     4     5 1
     5     4     7 1
     6     4    14 1
     7     5     6 1
     8     5    15 1
     9     5    16 1
    10     7     8 1
    11     7    17 1
    12     7    18 1
    13     8     9 ar
    14     8    13 ar
    15     9    10 ar
    16     9    19 1
    17    10    11 ar
    18    10    20 1
    19    11    12 ar
    20    11    21 1
    21    12    13 ar
    22    12    22 1
    23    13    23 1
@<TRIPOS>SUBSTRUCTURE
     1 BIP         1 TEMP              0 ****  ****    0 ROOT
