@<TRIPOS>MOLECULE
BIR
   55    56     1     0     0
SMALL
bcc


@<TRIPOS>ATOM
      1 C3           0.0000     0.0000     0.0000 c3         1 BIR       0.049900
      2 C2           1.5300     0.0000     0.0000 c3         1 BIR      -0.136700
      3 N1           2.0190     0.0000     1.3850 nz         1 BIR       0.108400
      4 P4           2.1380     1.4870    -0.8600 p5         1 BIR       0.340400
      5 O6           1.6030     2.8020    -0.1010 o          1 BIR      -0.567000
      6 O5           1.6450     1.4870    -2.2550 o          1 BIR      -0.567000
      7 C7           3.9610     1.4870    -0.8600 c3         1 BIR      -0.031600
      8 C8           4.4710     2.6290    -1.7400 c3         1 BIR      -0.068700
      9 C10          5.9330     2.4180    -2.0410 c          1 BIR       0.550100
     10 O23          6.7750     2.7880    -1.2490 o          1 BIR      -0.716100
     11 N24          6.3050     1.8180    -3.1890 ns         1 BIR      -0.129900
     12 C25          7.7260     1.6130    -3.4810 c3         1 BIR      -0.107300
     13 C26          8.2000     0.3160    -2.8220 c3         1 BIR       0.009900
     14 C27          7.9230     1.5190    -4.9720 c          1 BIR       0.976600
     15 O28          9.1540     1.3300    -5.4750 o          1 BIR      -0.889800
     16 O29          6.9750     1.6150    -5.7140 o          1 BIR      -0.889800
     17 C9           4.2900     3.9590    -1.0050 c3         1 BIR      -0.004100
     18 C11          4.6830     5.0940    -1.9150 ca         1 BIR      -0.067300
     19 C12          3.7340     5.6860    -2.7300 ca         1 BIR      -0.097500
     20 C13          4.0890     6.7250    -3.5650 ca         1 BIR      -0.095500
     21 C14          5.4050     7.1800    -3.5870 cp         1 BIR      -0.064000
     22 C15          6.3570     6.5800    -2.7640 ca         1 BIR      -0.095500
     23 C16          5.9900     5.5450    -1.9300 ca         1 BIR      -0.097500
     24 C17          5.7930     8.2970    -4.4830 cp         1 BIR      -0.002000
     25 C18          6.6830     9.2720    -4.0400 ca         1 BIR      -0.097000
     26 C19          7.0400    10.3100    -4.8770 ca         1 BIR      -0.106000
     27 C20          6.5150    10.3820    -6.1560 ca         1 BIR      -0.121000
     28 C21          5.6300     9.4170    -6.6010 ca         1 BIR      -0.106000
     29 C22          5.2720     8.3710    -5.7730 ca         1 BIR      -0.097000
     30 H31         -0.3610    -0.5540    -0.8580 hc         1 BIR       0.019033
     31 H32         -0.3610    -0.4660     0.9090 hc         1 BIR       0.019033
     32 H33         -0.3610     1.0200    -0.0500 hc         1 BIR       0.019033
     33 H2           1.8900    -0.8850    -0.5100 hx         1 BIR       0.082700
     34 HN11         1.2460    -0.1030     2.0120 hn         1 BIR       0.199133
     35 HN12         2.6570    -0.7610     1.5130 hn         1 BIR       0.199133
     36 H71          4.3210     0.5420    -1.2500 hc         1 BIR       0.014700
     37 H72          4.3220     1.6210     0.1520 hc         1 BIR       0.014700
     38 H8           3.9110     2.6500    -2.6670 hc         1 BIR       0.064700
     39 H24          5.6110     1.5130    -3.8420 hn         1 BIR       0.194500
     40 H25          8.2990     2.4460    -3.0920 h1         1 BIR       0.053700
     41 H261         8.9870     0.5380    -2.1120 hc         1 BIR      -0.005300
     42 H262         8.5780    -0.3580    -3.5810 hc         1 BIR      -0.005300
     43 H263         7.3700    -0.1510    -2.3060 hc         1 BIR      -0.005300
     44 H91          3.2530     4.0720    -0.7140 hc         1 BIR       0.049700
     45 H92          4.9160     3.9720    -0.1210 hc         1 BIR       0.049700
     46 H12          2.7100     5.3320    -2.7120 ha         1 BIR       0.127500
     47 H13          3.3440     7.1870    -4.2020 ha         1 BIR       0.100000
     48 H15          7.3820     6.9310    -2.7760 ha         1 BIR       0.100000
     49 H16          6.7300     5.0790    -1.2900 ha         1 BIR       0.127500
     50 H18          7.0940     9.2170    -3.0390 ha         1 BIR       0.111000
     51 H19          7.7330    11.0690    -4.5330 ha         1 BIR       0.094500
     52 H20          6.7960    11.1990    -6.8090 ha         1 BIR       0.092000
     53 H21          5.2240     9.4770    -7.6030 ha         1 BIR       0.094500
     54 H22          4.5790     7.6150    -6.1230 ha         1 BIR       0.111000
     55 H131         2.4880     0.8640     1.5730 hn         1 BIR       0.199133
@<TRIPOS>BOND
     1     1     2 1   
     2     1    30 1   
     3     1    31 1   
     4     1    32 1   
     5     2     3 1   
     6     2     4 1   
     7     2    33 1   
     8     3    34 1   
     9     3    35 1   
    10     3    55 1   
    11     4     5 1   
    12     4     6 1   
    13     4     7 1   
    14     7     8 1   
    15     7    36 1   
    16     7    37 1   
    17     8     9 1   
    18     8    17 1   
    19     8    38 1   
    20     9    10 2   
    21     9    11 1   
    22    11    12 1   
    23    11    39 1   
    24    12    13 1   
    25    12    14 1   
    26    12    40 1   
    27    13    41 1   
    28    13    42 1   
    29    13    43 1   
    30    14    15 1   
    31    14    16 1   
    32    17    18 1   
    33    17    44 1   
    34    17    45 1   
    35    18    19 ar  
    36    18    23 ar  
    37    19    20 ar  
    38    19    46 1   
    39    20    21 ar  
    40    20    47 1   
    41    21    22 ar  
    42    21    24 1   
    43    22    23 ar  
    44    22    48 1   
    45    23    49 1   
    46    24    25 ar  
    47    24    29 ar  
    48    25    26 ar  
    49    25    50 1   
    50    26    27 ar  
    51    26    51 1   
    52    27    28 ar  
    53    27    52 1   
    54    28    29 ar  
    55    28    53 1   
    56    29    54 1   
@<TRIPOS>SUBSTRUCTURE
     1 BIR         1 TEMP              0 ****  ****    0 ROOT
