@<TRIPOS>MOLECULE
molecule
   38    41     1     0     0
SMALL
bcc


@<TRIPOS>ATOM
      1 O2           0.0000     0.0000     0.0000 o          1 BIT      -0.502100
      2 C4           1.2130     0.0000     0.0000 c          1 BIT       0.562700
      3 C5           1.9960     0.0000     1.2470 ca         1 BIT      -0.235600
      4 C6           1.4770     0.5370     2.4240 ca         1 BIT      -0.051000
      5 C7           2.2380     0.5230     3.5740 ca         1 BIT      -0.114300
      6 C18          1.6830     1.1100     4.8470 c3         1 BIT      -0.044800
      7 C8           3.5100    -0.0320     3.5680 ca         1 BIT      -0.087000
      8 C10          3.2940    -0.5600     1.2350 ca         1 BIT       0.222400
      9 C9           4.0380    -0.5730     2.4150 ca         1 BIT      -0.123000
     10 C3           2.0190    -0.0000    -1.2860 c3         1 BIT      -0.044500
     11 C11          3.2110    -0.9210    -1.0570 c2         1 BIT       0.687200
     12 N2           3.8010    -1.0980     0.0900 ne         1 BIT      -0.659100
     13 O1           2.4140     1.3130    -1.6880 oh         1 BIT      -0.553800
     14 C2           1.2300    -0.7400    -2.3890 c3         1 BIT      -0.114400
     15 C1           2.3470    -1.5010    -3.1370 c3         1 BIT       0.220800
     16 N1           3.5220    -1.4950    -2.2530 nh         1 BIT      -0.619000
     17 C12          4.7790    -2.0030    -2.5920 ca         1 BIT       0.174600
     18 C13          4.9880    -2.5680    -3.8440 ca         1 BIT      -0.166500
     19 C14          6.2310    -3.0690    -4.1770 ca         1 BIT      -0.101500
     20 C15          7.2680    -3.0080    -3.2640 ca         1 BIT      -0.157000
     21 C16          7.0650    -2.4470    -2.0170 ca         1 BIT      -0.101500
     22 C17          5.8260    -1.9390    -1.6810 ca         1 BIT      -0.166500
     23 H6           0.5300     1.0630     2.4080 ha         1 BIT       0.144000
     24 H181         2.2760     0.7720     5.6890 hc         1 BIT       0.044367
     25 H182         1.7190     2.1920     4.7910 hc         1 BIT       0.044367
     26 H183         0.6570     0.7890     4.9750 hc         1 BIT       0.044367
     27 H8           4.0960    -0.0360     4.4790 ha         1 BIT       0.135000
     28 H9           5.0320    -1.0040     2.4250 ha         1 BIT       0.149000
     29 HO1          1.6900     1.9060    -1.5770 ho         1 BIT       0.418000
     30 H21          0.8070    -0.0030    -3.0610 hc         1 BIT       0.082700
     31 H22          0.5770    -1.4640    -1.9170 hc         1 BIT       0.082700
     32 H11          2.5970    -0.9330    -4.0240 h1         1 BIT       0.066700
     33 H12          2.0260    -2.5290    -3.2530 h1         1 BIT       0.066700
     34 H13          4.1750    -2.6150    -4.5590 ha         1 BIT       0.152000
     35 H14          6.3930    -3.5090    -5.1530 ha         1 BIT       0.132000
     36 H15          8.2410    -3.4040    -3.5270 ha         1 BIT       0.129000
     37 H16          7.8810    -2.3990    -1.3060 ha         1 BIT       0.132000
     38 H17          5.6670    -1.4990    -0.7030 ha         1 BIT       0.152000
@<TRIPOS>BOND
     1     1     2 2
     2     2     3 1
     3     2    10 1
     4     3     4 ar
     5     3     8 ar
     6     4     5 ar
     7     4    23 1
     8     5     6 1
     9     5     7 ar
    10     6    24 1
    11     6    25 1
    12     6    26 1
    13     7     9 ar
    14     7    27 1
    15     8     9 ar
    16     8    12 1
    17     9    28 1
    18    10    11 1
    19    10    13 1
    20    10    14 1
    21    11    12 2
    22    11    16 1
    23    13    29 1
    24    14    15 1
    25    14    30 1
    26    14    31 1
    27    15    16 1
    28    15    32 1
    29    15    33 1
    30    16    17 1
    31    17    18 ar
    32    17    22 ar
    33    18    19 ar
    34    18    34 1
    35    19    20 ar
    36    19    35 1
    37    20    21 ar
    38    20    36 1
    39    21    22 ar
    40    21    37 1
    41    22    38 1
@<TRIPOS>SUBSTRUCTURE
     1 BIT         1 TEMP              0 ****  ****    0 ROOT
