@<TRIPOS>MOLECULE
BIV
   90    92     1     0     0
SMALL
bcc


@<TRIPOS>ATOM
      1 O2         -0.2350    1.1650    0.5060 oh        1 BIV     -0.599800
      2 O3         14.7810   -4.7540    3.3910 oh        1 BIV     -0.593800
      3 C1          3.2670    2.4510   -0.0410 c3        1 BIV      0.186300
      4 C2          1.7480    2.5030    0.0910 c3        1 BIV     -0.146400
      5 C3          1.1720    1.1080    0.3020 c3        1 BIV      0.146100
      6 C4          1.7630    0.4640    1.5540 c3        1 BIV     -0.035200
      7 C5          3.2530    0.4320    1.4820 ce        1 BIV     -0.074200
      8 C6          3.9210   -0.7020    1.7830 cf        1 BIV     -0.108000
      9 C7          5.3550   -0.8610    1.7160 cf        1 BIV     -0.150000
     10 C8          6.0760   -1.7720    2.3920 c2        1 BIV     -0.081400
     11 C9          5.5220   -2.7150    3.4100 c3        1 BIV     -0.044200
     12 C10         3.8980    1.6850    1.0950 ce        1 BIV     -0.069200
     13 C11         6.0360   -4.1370    3.2660 c3        1 BIV     -0.073400
     14 C12         7.5330   -4.2390    3.0340 c3        1 BIV     -0.067400
     15 C13         7.9650   -3.3450    1.8810 c3        1 BIV     -0.039000
     16 C14         7.5530   -1.8960    2.2740 c3        1 BIV     -0.036500
     17 C15         8.3370   -1.0130    1.3170 c3        1 BIV     -0.075400
     18 C16         9.6430   -1.7720    1.0780 c3        1 BIV     -0.078400
     19 C17         9.4920   -3.1810    1.6890 c3        1 BIV     -0.054700
     20 C18         7.3010   -3.7730    0.5840 c3        1 BIV     -0.083100
     21 C19         4.9820    2.1700    1.7120 c2        1 BIV     -0.193000
     22 C20        10.2190   -4.2270    0.8470 c3        1 BIV     -0.048700
     23 C22        11.6830   -3.8460    0.6470 c3        1 BIV     -0.076900
     24 C23        12.4970   -3.7840    1.9220 c3        1 BIV     -0.079900
     25 C24        13.9370   -3.4270    1.6210 c3        1 BIV     -0.063400
     26 C25        14.8280   -3.4260    2.8670 c3        1 BIV      0.147800
     27 C26        14.3360   -2.4350    3.9150 c3        1 BIV     -0.123350
     28 C27        16.2610   -3.0830    2.4660 c3        1 BIV     -0.123350
     29 O1          3.6660    1.8160   -1.2530 oh        1 BIV     -0.588800
     30 C21        10.0790   -5.6240    1.4350 c3        1 BIV     -0.076900
     31 C28        10.8410   -6.6770    0.6560 c3        1 BIV     -0.079900
     32 C29        10.3880   -8.0660    1.0480 c3        1 BIV     -0.063400
     33 C30        11.2270   -9.1750    0.4050 c3        1 BIV      0.147800
     34 O4         12.5540   -9.0110    0.9090 oh        1 BIV     -0.593800
     35 C32        10.6840  -10.5370    0.8290 c3        1 BIV     -0.123350
     36 C33        11.2300   -9.0710   -1.1160 c3        1 BIV     -0.123350
     37 HO2        -0.6140    1.5560   -0.2880 ho        1 BIV      0.398000
     38 HO3        15.3480   -4.7640    4.1710 ho        1 BIV      0.395000
     39 H1          3.6620    3.5100   -0.0510 h1        1 BIV      0.034700
     40 H21         1.3050    2.9580   -0.8320 hc        1 BIV      0.052700
     41 H22         1.4740    3.1540    0.9600 hc        1 BIV      0.052700
     42 H3          1.3980    0.4710   -0.6000 h1        1 BIV      0.048700
     43 H41         1.3390   -0.5690    1.6630 hc        1 BIV      0.062200
     44 H42         1.4440    1.0540    2.4550 hc        1 BIV      0.062200
     45 H6          3.3420   -1.5980    2.0720 ha        1 BIV      0.124000
     46 H7          5.8700   -0.1620    1.0280 ha        1 BIV      0.137000
     47 H91         4.4010   -2.7360    3.3710 hc        1 BIV      0.046700
     48 H92         5.8080   -2.3230    4.4250 hc        1 BIV      0.046700
     49 H111        5.5010   -4.6350    2.4130 hc        1 BIV      0.040200
     50 H112        5.7740   -4.7070    4.1970 hc        1 BIV      0.040200
     51 H121        7.7940   -5.3090    2.8290 hc        1 BIV      0.042700
     52 H122        8.0820   -3.9360    3.9650 hc        1 BIV      0.042700
     53 H14         7.9660   -1.7020    3.3110 hc        1 BIV      0.052700
     54 H151        8.5230   -0.0030    1.7540 hc        1 BIV      0.045700
     55 H152        7.7860   -0.8740    0.3530 hc        1 BIV      0.045700
     56 H161        9.8420   -1.8390   -0.0210 hc        1 BIV      0.041700
     57 H162       10.5060   -1.2440    1.5510 hc        1 BIV      0.041700
     58 H17         9.9550   -3.1850    2.7150 hc        1 BIV      0.048700
     59 H181        7.7110   -3.1850   -0.2730 hc        1 BIV      0.037700
     60 H182        6.1990   -3.5960    0.6300 hc        1 BIV      0.037700
     61 H183        7.4790   -4.8580    0.3930 hc        1 BIV      0.037700
     62 H191        5.4520    1.6530    2.5600 ha        1 BIV      0.120000
     63 H192        5.4590    3.1110    1.4090 ha        1 BIV      0.120000
     64 H20         9.7450   -4.2400   -0.1780 hc        1 BIV      0.045700
     65 H221       12.1510   -4.5910   -0.0520 hc        1 BIV      0.039950
     66 H222       11.7370   -2.8480    0.1340 hc        1 BIV      0.039950
     67 H231       12.4690   -4.7750    2.4490 hc        1 BIV      0.051450
     68 H232       12.0580   -3.0190    2.6140 hc        1 BIV      0.051450
     69 H241       14.3570   -4.1670    0.8910 hc        1 BIV      0.045950
     70 H242       13.9910   -2.4090    1.1540 hc        1 BIV      0.045950
     71 H261       15.0870   -2.3330    4.7350 hc        1 BIV      0.041783
     72 H262       13.3760   -2.7930    4.3580 hc        1 BIV      0.041783
     73 H263       14.1730   -1.4350    3.4500 hc        1 BIV      0.041783
     74 H271       16.9280   -3.1020    3.3600 hc        1 BIV      0.041783
     75 H272       16.2970   -2.0660    2.0110 hc        1 BIV      0.041783
     76 H273       16.6380   -3.8280    1.7260 hc        1 BIV      0.041783
     77 HO1         3.2040    2.2720   -1.9670 ho        1 BIV      0.396000
     78 H211       10.4220   -5.6220    2.5020 hc        1 BIV      0.039950
     79 H212        8.9910   -5.9020    1.4320 hc        1 BIV      0.039950
     80 H281       10.6790   -6.5220   -0.4440 hc        1 BIV      0.051450
     81 H282       11.9420   -6.5840    0.8540 hc        1 BIV      0.051450
     82 H291        9.3190   -8.2230    0.7500 hc        1 BIV      0.045950
     83 H292       10.4580   -8.1770    2.1630 hc        1 BIV      0.045950
     84 HO4        13.0910   -9.7010    0.5040 ho        1 BIV      0.395000
     85 H321        9.6340  -10.6580    0.4710 hc        1 BIV      0.041783
     86 H322       10.7030  -10.6250    1.9410 hc        1 BIV      0.041783
     87 H323       11.3080  -11.3540    0.3960 hc        1 BIV      0.041783
     88 H331       11.7090   -9.9740   -1.5650 hc        1 BIV      0.041783
     89 H332       11.8060   -8.1700   -1.4350 hc        1 BIV      0.041783
     90 H333       10.1860   -8.9900   -1.4960 hc        1 BIV      0.041783
@<TRIPOS>BOND
     1    1    5 1   
     2    1   37 1   
     3    2   26 1   
     4    2   38 1   
     5    3    4 1   
     6    3   12 1   
     7    3   29 1   
     8    3   39 1   
     9    4    5 1   
    10    4   40 1   
    11    4   41 1   
    12    5    6 1   
    13    5   42 1   
    14    6    7 1   
    15    6   43 1   
    16    6   44 1   
    17    7    8 2   
    18    7   12 1   
    19    8    9 1   
    20    8   45 1   
    21    9   10 2   
    22    9   46 1   
    23   10   11 1   
    24   10   16 1   
    25   11   13 1   
    26   11   47 1   
    27   11   48 1   
    28   12   21 2   
    29   13   14 1   
    30   13   49 1   
    31   13   50 1   
    32   14   15 1   
    33   14   51 1   
    34   14   52 1   
    35   15   16 1   
    36   15   19 1   
    37   15   20 1   
    38   16   17 1   
    39   16   53 1   
    40   17   18 1   
    41   17   54 1   
    42   17   55 1   
    43   18   19 1   
    44   18   56 1   
    45   18   57 1   
    46   19   22 1   
    47   19   58 1   
    48   20   59 1   
    49   20   60 1   
    50   20   61 1   
    51   21   62 1   
    52   21   63 1   
    53   22   23 1   
    54   22   30 1   
    55   22   64 1   
    56   23   24 1   
    57   23   65 1   
    58   23   66 1   
    59   24   25 1   
    60   24   67 1   
    61   24   68 1   
    62   25   26 1   
    63   25   69 1   
    64   25   70 1   
    65   26   27 1   
    66   26   28 1   
    67   27   71 1   
    68   27   72 1   
    69   27   73 1   
    70   28   74 1   
    71   28   75 1   
    72   28   76 1   
    73   29   77 1   
    74   30   31 1   
    75   30   78 1   
    76   30   79 1   
    77   31   32 1   
    78   31   80 1   
    79   31   81 1   
    80   32   33 1   
    81   32   82 1   
    82   32   83 1   
    83   33   34 1   
    84   33   35 1   
    85   33   36 1   
    86   34   84 1   
    87   35   85 1   
    88   35   86 1   
    89   35   87 1   
    90   36   88 1   
    91   36   89 1   
    92   36   90 1   
@<TRIPOS>SUBSTRUCTURE
     1 BIV         1 TEMP              0 ****  ****    0 ROOT
