@<TRIPOS>MOLECULE
molecule
   90    92     1     0     0
SMALL
bcc


@<TRIPOS>ATOM
      1 O2           0.0000     0.0000     0.0000 oh         1 BIV      -0.611800
      2 O3          14.8000    -5.2600     3.3060 oh         1 BIV      -0.601800
      3 C1           3.4620     1.1760    -0.8740 c3         1 BIV       0.189300
      4 C2           1.9370     1.2440    -0.7300 c3         1 BIV      -0.099400
      5 C3           1.4300     0.0000     0.0000 c3         1 BIV       0.152100
      6 C4           1.9390     0.0000     1.4440 c3         1 BIV      -0.044200
      7 C5           3.4530     0.0560     1.4170 ce         1 BIV      -0.081200
      8 C6           4.2050    -0.7620     2.1820 cf         1 BIV      -0.119000
      9 C7           5.6670    -0.6780     2.1260 cf         1 BIV      -0.161000
     10 C8           6.4100    -1.4860     2.8830 c2         1 BIV      -0.094400
     11 C9           5.7980    -2.5150     3.8220 c3         1 BIV      -0.044200
     12 C10          4.0670     1.0490     0.5090 ce         1 BIV      -0.087200
     13 C11          6.4290    -3.8880     3.6050 c3         1 BIV      -0.078400
     14 C12          7.9640    -3.8140     3.5840 c3         1 BIV      -0.067400
     15 C13          8.3600    -2.8790     2.4650 c3         1 BIV      -0.061000
     16 C14          7.9090    -1.4500     2.8640 c3         1 BIV      -0.034500
     17 C15          8.5630    -0.6150     1.7600 c3         1 BIV      -0.078400
     18 C16          9.9720    -1.2620     1.6300 c3         1 BIV      -0.080400
     19 C17          9.8400    -2.7040     2.1590 c3         1 BIV      -0.057700
     20 C18          7.6360    -3.2910     1.1810 c3         1 BIV      -0.094100
     21 C19          5.1030     1.7960     0.8890 c2         1 BIV      -0.209000
     22 C20         10.2790    -3.6940     1.0790 c3         1 BIV      -0.065700
     23 C22         11.7690    -3.5020     0.7860 c3         1 BIV      -0.087400
     24 C23         12.5810    -3.8220     2.0430 c3         1 BIV      -0.083900
     25 C24         14.0600    -3.5390     1.7790 c3         1 BIV      -0.065900
     26 C25         14.8740    -3.8590     3.0350 c3         1 BIV       0.147800
     27 C26         14.3040    -3.0790     4.2220 c3         1 BIV      -0.120350
     28 C27         16.3330    -3.4580     2.8140 c3         1 BIV      -0.120350
     29 O1           3.8190     0.0390    -1.6630 oh         1 BIV      -0.598800
     30 C21         10.0360    -5.1230     1.5680 c3         1 BIV      -0.087400
     31 C28         10.3700    -6.1100     0.4470 c3         1 BIV      -0.083900
     32 C29         10.0060    -7.5290     0.8910 c3         1 BIV      -0.065900
     33 C30         10.3400    -8.5150    -0.2290 c3         1 BIV       0.147800
     34 O4          11.7530    -8.5370    -0.4390 oh         1 BIV      -0.601800
     35 C32          9.8610    -9.9140     0.1630 c3         1 BIV      -0.120350
     36 C33          9.6400    -8.0800    -1.5180 c3         1 BIV      -0.120350
     37 HO2         -0.3140    -0.7830    -0.4210 ho         1 BIV       0.401000
     38 HO3         15.5280    -5.5140     3.8480 ho         1 BIV       0.400000
     39 H1           3.8220     2.0810    -1.3470 h1         1 BIV       0.037700
     40 H21          1.6700     2.1270    -0.1620 hc         1 BIV       0.056700
     41 H22          1.4860     1.2920    -1.7130 hc         1 BIV       0.056700
     42 H3           1.7940    -0.8850    -0.5070 h1         1 BIV       0.053700
     43 H41          1.5530     0.8670     1.9660 hc         1 BIV       0.057700
     44 H42          1.6180    -0.9060     1.9430 hc         1 BIV       0.057700
     45 H6           3.7290    -1.4810     2.8360 ha         1 BIV       0.134000
     46 H7           6.1440     0.0410     1.4710 ha         1 BIV       0.147000
     47 H91          4.7330    -2.5790     3.6330 hc         1 BIV       0.048700
     48 H92          5.9650    -2.2040     4.8460 hc         1 BIV       0.048700
     49 H111         6.1200    -4.5470     4.4080 hc         1 BIV       0.042700
     50 H112         6.0830    -4.2890     2.6600 hc         1 BIV       0.042700
     51 H121         8.3760    -4.7990     3.4010 hc         1 BIV       0.046200
     52 H122         8.3260    -3.4280     4.5290 hc         1 BIV       0.046200
     53 H14          8.3030    -1.1820     3.8360 hc         1 BIV       0.065700
     54 H151         8.6450     0.4220     2.0640 hc         1 BIV       0.047700
     55 H152         8.0120    -0.7090     0.8320 hc         1 BIV       0.047700
     56 H161        10.2790    -1.2750     0.5910 hc         1 BIV       0.043200
     57 H162        10.6880    -0.7120     2.2280 hc         1 BIV       0.043200
     58 H17         10.4280    -2.8300     3.0590 hc         1 BIV       0.057700
     59 H181         7.6370    -4.3710     1.0970 hc         1 BIV       0.041033
     60 H182         6.6140    -2.9320     1.2110 hc         1 BIV       0.041033
     61 H183         8.1440    -2.8610     0.3260 hc         1 BIV       0.041033
     62 H191         5.5150     1.6840     1.8850 ha         1 BIV       0.122000
     63 H192         5.5320     2.5160     0.2030 ha         1 BIV       0.122000
     64 H20          9.7080    -3.5200     0.1750 hc         1 BIV       0.057700
     65 H221        11.9500    -2.4760     0.4910 hc         1 BIV       0.045450
     66 H222        12.0680    -4.1660    -0.0160 hc         1 BIV       0.045450
     67 H231        12.2350    -3.2050     2.8630 hc         1 BIV       0.052450
     68 H232        12.4530    -4.8670     2.2990 hc         1 BIV       0.052450
     69 H241        14.4060    -4.1570     0.9590 hc         1 BIV       0.048450
     70 H242        14.1880    -2.4940     1.5220 hc         1 BIV       0.048450
     71 H261        13.4370    -3.5990     4.6130 hc         1 BIV       0.041033
     72 H262        14.0140    -2.0870     3.8970 hc         1 BIV       0.041033
     73 H263        15.0570    -3.0000     4.9970 hc         1 BIV       0.041033
     74 H271        16.9070    -3.6790     3.7050 hc         1 BIV       0.041033
     75 H272        16.3880    -2.3970     2.6030 hc         1 BIV       0.041033
     76 H273        16.7370    -4.0140     1.9770 hc         1 BIV       0.041033
     77 HO1          4.2180     0.3270    -2.4670 ho         1 BIV       0.401000
     78 H211        10.6660    -5.3230     2.4260 hc         1 BIV       0.045450
     79 H212         8.9960    -5.2360     1.8500 hc         1 BIV       0.045450
     80 H281        11.4300    -6.0620     0.2280 hc         1 BIV       0.052450
     81 H282         9.8060    -5.8530    -0.4410 hc         1 BIV       0.052450
     82 H291        10.5700    -7.7860     1.7790 hc         1 BIV       0.048450
     83 H292         8.9460    -7.5770     1.1100 hc         1 BIV       0.048450
     84 HO4         11.9870    -9.3090    -0.9270 ho         1 BIV       0.400000
     85 H321         8.7910    -9.8960     0.3320 hc         1 BIV       0.041033
     86 H322        10.3640   -10.2270     1.0700 hc         1 BIV       0.041033
     87 H323        10.0890   -10.6110    -0.6350 hc         1 BIV       0.041033
     88 H331        10.2100    -7.2890    -1.9900 hc         1 BIV       0.041033
     89 H332         8.6460    -7.7180    -1.2850 hc         1 BIV       0.041033
     90 H333         9.5680    -8.9240    -2.1930 hc         1 BIV       0.041033
@<TRIPOS>BOND
     1     1     5 1
     2     1    37 1
     3     2    26 1
     4     2    38 1
     5     3     4 1
     6     3    12 1
     7     3    29 1
     8     3    39 1
     9     4     5 1
    10     4    40 1
    11     4    41 1
    12     5     6 1
    13     5    42 1
    14     6     7 1
    15     6    43 1
    16     6    44 1
    17     7     8 2
    18     7    12 1
    19     8     9 1
    20     8    45 1
    21     9    10 2
    22     9    46 1
    23    10    11 1
    24    10    16 1
    25    11    13 1
    26    11    47 1
    27    11    48 1
    28    12    21 2
    29    13    14 1
    30    13    49 1
    31    13    50 1
    32    14    15 1
    33    14    51 1
    34    14    52 1
    35    15    16 1
    36    15    19 1
    37    15    20 1
    38    16    17 1
    39    16    53 1
    40    17    18 1
    41    17    54 1
    42    17    55 1
    43    18    19 1
    44    18    56 1
    45    18    57 1
    46    19    22 1
    47    19    58 1
    48    20    59 1
    49    20    60 1
    50    20    61 1
    51    21    62 1
    52    21    63 1
    53    22    23 1
    54    22    30 1
    55    22    64 1
    56    23    24 1
    57    23    65 1
    58    23    66 1
    59    24    25 1
    60    24    67 1
    61    24    68 1
    62    25    26 1
    63    25    69 1
    64    25    70 1
    65    26    27 1
    66    26    28 1
    67    27    71 1
    68    27    72 1
    69    27    73 1
    70    28    74 1
    71    28    75 1
    72    28    76 1
    73    29    77 1
    74    30    31 1
    75    30    78 1
    76    30    79 1
    77    31    32 1
    78    31    80 1
    79    31    81 1
    80    32    33 1
    81    32    82 1
    82    32    83 1
    83    33    34 1
    84    33    35 1
    85    33    36 1
    86    34    84 1
    87    35    85 1
    88    35    86 1
    89    35    87 1
    90    36    88 1
    91    36    89 1
    92    36    90 1
@<TRIPOS>SUBSTRUCTURE
     1 BIV         1 TEMP              0 ****  ****    0 ROOT
