@<TRIPOS>MOLECULE
BIW
   63    67     1     0     0
SMALL
bcc


@<TRIPOS>ATOM
      1 C1         -0.4530   -0.3770   -0.0060 ca        1 BIW     -0.113600
      2 C2          0.9000   -0.1160   -0.1860 ca        1 BIW     -0.123000
      3 C3          1.7080    0.0410    0.9530 ca        1 BIW     -0.043200
      4 C4          1.1530   -0.0650    2.2810 ca        1 BIW     -0.093800
      5 C5         -0.2150   -0.3200    2.4240 ca        1 BIW     -0.135000
      6 C6         -0.9980   -0.4710    1.2920 ca        1 BIW     -0.126000
      7 N7          3.0940    0.2510    1.0730 na        1 BIW     -0.063400
      8 C8          3.4100    0.3200    2.4490 cc        1 BIW      0.034700
      9 C9          2.2490    0.1190    3.2090 cd        1 BIW     -0.140400
     10 C10         2.1900    0.0920    4.6840 c3        1 BIW      0.020500
     11 C11         1.2910    1.2030    5.2200 c3        1 BIW     -0.074900
     12 C12         1.2170    1.1710    6.7330 c3        1 BIW     -0.074400
     13 C13         0.7550   -0.1820    7.2350 c3        1 BIW     -0.073400
     14 C14         1.6450   -1.2900    6.7080 c3        1 BIW     -0.074400
     15 C15         1.7190   -1.2660    5.1960 c3        1 BIW     -0.074900
     16 C16         4.7490    0.5660    2.9180 cc        1 BIW     -0.169100
     17 C17         5.9580   -0.1110    2.4780 cc        1 BIW     -0.293300
     18 C18         7.0160    0.5170    3.1000 cd        1 BIW      0.269600
     19 O19         6.5420    1.5250    3.9420 os        1 BIW     -0.377800
     20 C20         5.1540    1.5410    3.8130 cd        1 BIW      0.236600
     21 C21        -1.3590   -0.5770   -1.2110 c         1 BIW      0.907200
     22 O22        -2.5950   -0.7590   -1.0050 o         1 BIW     -0.840800
     23 O23        -0.8400   -0.5590   -2.3640 o         1 BIW     -0.840800
     24 C24         4.0010    0.4780   -0.0050 c3        1 BIW     -0.016700
     25 C25         4.6350    1.8820   -0.0710 c         1 BIW      0.635100
     26 O26         4.0800    2.8720    0.4440 o         1 BIW     -0.595100
     27 N27         5.8090    2.0550   -0.8080 n         1 BIW     -0.449800
     28 C28         6.6840    3.1640   -0.4600 c3        1 BIW      0.077000
     29 C29         7.9410    2.7520    0.3120 c3        1 BIW     -0.089400
     30 C30         8.6910    1.6360   -0.3900 c3        1 BIW     -0.181700
     31 C31         7.7530    0.4770   -0.6740 c3        1 BIW     -0.089400
     32 C32         6.5130    0.9540   -1.4320 c3        1 BIW      0.077000
     33 C33         9.8860    1.1650    0.4720 c         1 BIW      0.918600
     34 O34         9.6590    0.6090    1.5870 o         1 BIW     -0.852800
     35 O35        11.0480    1.3580    0.0150 o         1 BIW     -0.852800
     36 H2          1.2990   -0.0390   -1.2090 ha        1 BIW      0.151000
     37 H5         -0.6570   -0.4000    3.4260 ha        1 BIW      0.105000
     38 H6         -2.0780   -0.6730    1.3710 ha        1 BIW      0.145000
     39 H10         3.2330    0.2700    5.0850 hc        1 BIW      0.045700
     40 H11         1.6900    2.1940    4.8830 hc        1 BIW      0.048700
     41 H11A        0.2640    1.0880    4.7850 hc        1 BIW      0.048700
     42 H12         2.2270    1.4010    7.1620 hc        1 BIW      0.026950
     43 H12A        0.5100    1.9650    7.0900 hc        1 BIW      0.026950
     44 H13         0.7620   -0.1920    8.3560 hc        1 BIW      0.026200
     45 H13A       -0.3000   -0.3620    6.9010 hc        1 BIW      0.026200
     46 H14         2.6750   -1.1740    7.1350 hc        1 BIW      0.026950
     47 H14A        1.2490   -2.2820    7.0490 hc        1 BIW      0.026950
     48 H15         0.7110   -1.4960    4.7600 hc        1 BIW      0.048700
     49 H15A        2.4280   -2.0580    4.8410 hc        1 BIW      0.048700
     50 H17         6.0010   -0.9520    1.7930 ha        1 BIW      0.158000
     51 H18         8.1090    0.4530    3.0090 h4        1 BIW      0.122100
     52 H20         4.6450    2.2980    4.3980 h4        1 BIW      0.045100
     53 H24         3.4530    0.3120   -0.9780 h1        1 BIW      0.077700
     54 H24A        4.8300   -0.2840    0.0950 h1        1 BIW      0.077700
     55 H28         6.1040    3.9170    0.1430 h1        1 BIW      0.039950
     56 H28A        6.9940    3.6520   -1.4290 h1        1 BIW      0.039950
     57 H29         8.6030    3.6490    0.4110 hc        1 BIW      0.050950
     58 H29A        7.6680    2.4090    1.3460 hc        1 BIW      0.050950
     59 H30         9.1000    2.0230   -1.3630 hc        1 BIW      0.035700
     60 H31         8.2770   -0.2940   -1.2930 hc        1 BIW      0.050950
     61 H31A        7.4620   -0.0000    0.3000 hc        1 BIW      0.050950
     62 H32         5.8170    0.0910   -1.6150 h1        1 BIW      0.039950
     63 H32A        6.8440    1.3290   -2.4460 h1        1 BIW      0.039950
@<TRIPOS>BOND
     1    1    2 ar
     2    1    6 ar
     3    1   21 1
     4    2    3 ar
     5    2   36 1
     6    3    4 ar
     7    3    7 1
     8    4    5 ar
     9    4    9 1
    10    5    6 ar
    11    5   37 1
    12    6   38 1
    13    7    8 1
    14    7   24 1
    15    8    9 2
    16    8   16 1
    17    9   10 1
    18   10   11 1
    19   10   15 1
    20   10   39 1
    21   11   12 1
    22   11   40 1
    23   11   41 1
    24   12   13 1
    25   12   42 1
    26   12   43 1
    27   13   14 1
    28   13   44 1
    29   13   45 1
    30   14   15 1
    31   14   46 1
    32   14   47 1
    33   15   48 1
    34   15   49 1
    35   16   17 1
    36   16   20 2
    37   17   18 2
    38   17   50 1
    39   18   19 1
    40   18   51 1
    41   19   20 1
    42   20   52 1
    43   21   22 1
    44   21   23 1
    45   24   25 1
    46   24   53 1
    47   24   54 1
    48   25   26 2
    49   25   27 1
    50   27   28 1
    51   27   32 1
    52   28   29 1
    53   28   55 1
    54   28   56 1
    55   29   30 1
    56   29   57 1
    57   29   58 1
    58   30   31 1
    59   30   33 1
    60   30   59 1
    61   31   32 1
    62   31   60 1
    63   31   61 1
    64   32   62 1
    65   32   63 1
    66   33   34 1
    67   33   35 1
@<TRIPOS>SUBSTRUCTURE
     1 BIW         1 TEMP              0 ****  ****    0 ROOT
