@<TRIPOS>MOLECULE
BIX
   36    35     1     0     0
SMALL
bcc


@<TRIPOS>ATOM
      1 C2       -467.0870  229.2890 -256.4540 c3        1 BIX     -0.153000
      2 C5       -466.1390  231.2890 -257.5720 c3        1 BIX     -0.226000
      3 C3       -468.5590  229.8060 -256.8000 c2        1 BIX      0.344000
      4 C4       -466.1190  229.7720 -257.5290 c3        1 BIX     -0.823000
      5 C1       -463.9760  229.5960 -255.9050 c3        1 BIX     -0.887000
      6 O1       -468.8530  230.9560 -256.4100 o         1 BIX     -0.526000
      7 OE2      1952.7120 -950.7510    0.3950 o         1 BIX     -0.385000
      8 CD       1953.2480 -950.9640    0.5220 c2        1 BIX      0.328000
      9 OE1      1954.0520 -951.9180    0.7430 os        1 BIX     -0.547000
     10 CB       -462.3270  228.0530 -254.8830 c2        1 BIX     -0.206000
     11 CA       -463.5890  228.3560 -255.1900 c2        1 BIX     -0.153000
     12 C        -464.7320  227.4550 -254.7560 c2        1 BIX      0.331000
     13 OC       -464.9020  226.3680 -255.3940 o         1 BIX     -0.571000
     14 O        -465.5620  227.8650 -253.8960 o         1 BIX     -0.571000
     15 P6       -464.4940  229.3930 -257.4660 p5        1 BIX      2.817000
     16 O61      -464.5700  227.8140 -257.7910 oh        1 BIX     -0.860000
     17 O6       -463.6470  230.0640 -258.4500 o         1 BIX     -1.140000
     18 N        -467.1660  227.8010 -256.2830 n4        1 BIX     -0.075000
     19 O3       -469.2990  228.9870 -257.4100 o         1 BIX     -0.526000
     20 H2       -466.8160  229.7220 -255.4470 hx        1 BIX      0.144000
     21 H5       -467.1760  231.6910 -257.6940 hc        1 BIX      0.103000
     22 H5A      -465.5060  231.6370 -258.4270 hc        1 BIX      0.103000
     23 H4       -465.7210  231.6920 -256.6180 hc        1 BIX      0.103000
     24 H4A      -466.5390  229.4030 -258.5120 hc        1 BIX      0.163000
     25 H1       -464.7480  230.0970 -255.2520 hc        1 BIX      0.155000
     26 H1A      -463.1000  230.3040 -255.9030 hc        1 BIX      0.155000
     27 HG       1952.5440 -950.6110    0.5480 DU        1 BIX      0.165000
     28 HGA      1952.1290 -949.2900    0.3720 hc        1 BIX      0.073000
     29 HB       1953.8290 -949.4690    0.9830 hc        1 BIX      0.073000
     30 HBA      -461.4760  228.6950 -255.1460 ha        1 BIX      0.107500
     31 HA       -462.0740  227.1290 -254.3470 ha        1 BIX      0.107500
     32 HN       -466.3600  227.3280 -256.7160 hn        1 BIX      0.260333
     33 HNA      -468.0410  227.4780 -256.7240 hn        1 BIX      0.260333
     34 H18      -464.1390  227.1720 -257.2230 ho        1 BIX      0.301000
     35 CG       1952.9120 -950.0220    0.6760 c3        1 BIX     -0.707000
     36 HN3      -467.1560  227.5710 -255.2780 hn        1 BIX      0.260333
@<TRIPOS>BOND
     1    1    3 1
     2    1    4 1
     3    1   18 1
     4    1   20 1
     5    2    4 1
     6    2   21 1
     7    2   22 1
     8    2   23 1
     9    3    6 1
    10    3   19 1
    11    4   15 1
    12    4   24 1
    13    5   11 1
    14    5   15 1
    15    5   25 1
    16    5   26 1
    17    7    9 1
    18    8    9 1
    19    8   27 1
    20    8   35 1
    21   10   11 1
    22   10   30 1
    23   10   31 1
    24   11   12 1
    25   12   13 1
    26   12   14 1
    27   15   16 1
    28   15   17 1
    29   16   34 1
    30   18   32 1
    31   18   33 1
    32   18   36 1
    33   27   35 1
    34   28   35 1
    35   29   35 1
@<TRIPOS>SUBSTRUCTURE
     1 BIX         1 TEMP              0 ****  ****    0 ROOT
