@<TRIPOS>MOLECULE
BIY
   23    23     1     0     0
SMALL
bcc


@<TRIPOS>ATOM
      1 O14          0.0000     0.0000     0.0000 o          1 BIY      -0.924800
      2 C12          1.2170     0.0000     0.0000 c          1 BIY       1.023800
      3 C3           1.9240     0.0000     1.2270 ce         1 BIY      -0.087600
      4 C2           3.2670     0.0000     1.2120 c2         1 BIY      -0.018000
      5 N1           4.0560    -0.0170     2.3220 nu         1 BIY      -0.401000
      6 S4           1.0250     0.0080     2.7440 ss         1 BIY      -0.359700
      7 C5           2.2980    -0.4780     3.9480 c3         1 BIY       0.040100
      8 C11          2.6040    -1.9710     3.8060 c3         1 BIY       0.013900
      9 C10          1.8090    -0.1820     5.3670 c3         1 BIY       0.013900
     10 C6           3.5610     0.3440     3.6510 c3         1 BIY       0.029500
     11 C7           3.2220     1.8120     3.6820 c          1 BIY       0.970600
     12 O9           3.0260     2.4090     2.6500 o          1 BIY      -0.884800
     13 O8           3.1380     2.4560     4.8570 o          1 BIY      -0.884800
     14 OXT          1.8930    -0.0060    -1.1680 o          1 BIY      -0.924800
     15 H1           5.0140    -0.2890     2.2250 hn         1 BIY       0.240800
     16 H2           3.7580     0.0170     0.2470 h4         1 BIY       0.131000
     17 H6           4.3190     0.1240     4.3920 h1         1 BIY       0.013700
     18 H111         3.3490    -2.2580     4.5390 hc         1 BIY       0.001033
     19 H112         1.6980    -2.5420     3.9690 hc         1 BIY       0.001033
     20 H113         2.9820    -2.1690     2.8100 hc         1 BIY       0.001033
     21 H101         2.6590    -0.1230     6.0370 hc         1 BIY       0.001033
     22 H102         1.1470    -0.9750     5.6930 hc         1 BIY       0.001033
     23 H103         1.2760     0.7610     5.3760 hc         1 BIY       0.001033
@<TRIPOS>BOND
     1     1     2 1   
     2     2     3 1   
     3     2    14 1   
     4     3     4 2   
     5     3     6 1   
     6     4     5 1   
     7     4    16 1   
     8     5    10 1   
     9     5    15 1   
    10     6     7 1   
    11     7     8 1   
    12     7     9 1   
    13     7    10 1   
    14     8    18 1   
    15     8    19 1   
    16     8    20 1   
    17     9    21 1   
    18     9    22 1   
    19     9    23 1   
    20    10    11 1   
    21    10    17 1   
    22    11    12 1   
    23    11    13 1   
@<TRIPOS>SUBSTRUCTURE
     1 BIY         1 TEMP              0 ****  ****    0 ROOT
