@<TRIPOS>MOLECULE
molecule
   23    23     1     0     0
SMALL
bcc


@<TRIPOS>ATOM
      1 O14          0.0000     0.0000     0.0000 o          1 BIY      -0.882300
      2 C12          1.2170     0.0000     0.0000 c          1 BIY       0.924800
      3 C3           1.9240     0.0000     1.2270 ce         1 BIY      -0.119600
      4 C2           3.2670     0.0000     1.2120 c2         1 BIY       0.104000
      5 N1           4.0560    -0.0170     2.3220 nu         1 BIY      -0.814000
      6 S4           1.0250     0.0080     2.7440 ss         1 BIY      -0.269700
      7 C5           2.2980    -0.4780     3.9480 c3         1 BIY       0.004100
      8 C11          2.6040    -1.9710     3.8060 c3         1 BIY      -0.062600
      9 C10          1.8090    -0.1820     5.3670 c3         1 BIY      -0.062600
     10 C6           3.5610     0.3440     3.6510 c3         1 BIY       0.141500
     11 C7           3.2220     1.8120     3.6820 c          1 BIY       0.884600
     12 O9           3.0260     2.4090     2.6500 o          1 BIY      -0.839300
     13 O8           3.1380     2.4560     4.8570 o          1 BIY      -0.839300
     14 OXT          1.8930    -0.0060    -1.1680 o          1 BIY      -0.882300
     15 H1           5.0140    -0.2890     2.2250 hn         1 BIY       0.387800
     16 H2           3.7580     0.0170     0.2470 h4         1 BIY       0.150000
     17 H6           4.3190     0.1240     4.3920 h1         1 BIY       0.027700
     18 H111         3.3490    -2.2580     4.5390 hc         1 BIY       0.024533
     19 H112         1.6980    -2.5420     3.9690 hc         1 BIY       0.024533
     20 H113         2.9820    -2.1690     2.8100 hc         1 BIY       0.024533
     21 H101         2.6590    -0.1230     6.0370 hc         1 BIY       0.024533
     22 H102         1.1470    -0.9750     5.6930 hc         1 BIY       0.024533
     23 H103         1.2760     0.7610     5.3760 hc         1 BIY       0.024533
@<TRIPOS>BOND
     1     1     2 1
     2     2     3 1
     3     3     4 2
     4     4     5 1
     5     3     6 1
     6     6     7 1
     7     7     8 1
     8     7     9 1
     9     5    10 1
    10     7    10 1
    11    10    11 1
    12    11    12 1
    13    11    13 1
    14     2    14 1
    15     5    15 1
    16     4    16 1
    17    10    17 1
    18     8    18 1
    19     8    19 1
    20     8    20 1
    21     9    21 1
    22     9    22 1
    23     9    23 1
@<TRIPOS>SUBSTRUCTURE
     1 BIY         1 TEMP              0 ****  ****    0 ROOT
