@<TRIPOS>MOLECULE
molecule
   34    36     1     0     0
SMALL
bcc


@<TRIPOS>ATOM
      1 CAA          0.0000     0.0000     0.0000 c3         1 BJ4       0.124700
      2 OAB          1.4290     0.0000     0.0000 os         1 BJ4      -0.303900
      3 CAC          2.0460     0.0000     1.2110 ca         1 BJ4       0.150100
      4 CAD          1.2990     0.0010     2.3720 ca         1 BJ4      -0.195000
      5 CAE          1.9170     0.0010     3.6150 ca         1 BJ4      -0.114000
      6 CAF          3.2900     0.0010     3.7160 ca         1 BJ4      -0.091000
      7 CAG          4.0680     0.0010     2.5580 ca         1 BJ4      -0.175600
      8 CAH          3.4470    -0.0060     1.2890 ca         1 BJ4       0.175400
      9 NAI          4.2140    -0.0120     0.1810 nc         1 BJ4      -0.624100
     10 CAJ          5.5200    -0.0170     0.2490 cd         1 BJ4       0.544500
     11 NAK          6.2050    -0.0190     1.4350 ns         1 BJ4      -0.472400
     12 CAL          5.5370     0.0020     2.6120 c          1 BJ4       0.710100
     13 OAM          6.1310     0.0020     3.6750 o          1 BJ4      -0.625500
     14 CAN          6.2920    -0.0250    -1.0110 ca         1 BJ4      -0.152900
     15 CAO          5.6290    -0.0240    -2.2390 ca         1 BJ4      -0.086500
     16 CAP          6.3550    -0.0300    -3.4110 ca         1 BJ4      -0.135500
     17 CAQ          7.7390    -0.0370    -3.3730 ca         1 BJ4      -0.059300
     18 CAR          8.5260    -0.0430    -4.6570 c3         1 BJ4      -0.052800
     19 CAS          8.4020    -0.0370    -2.1580 ca         1 BJ4      -0.135500
     20 CAT          7.6870    -0.0250    -0.9780 ca         1 BJ4      -0.086500
     21 HAA         -0.3610     0.0010    -1.0210 h1         1 BJ4       0.042033
     22 HAAA        -0.3610     0.8840     0.5120 h1         1 BJ4       0.042033
     23 HAAB        -0.3610    -0.8850     0.5090 h1         1 BJ4       0.042033
     24 HAD          0.2170     0.0000     2.3130 ha         1 BJ4       0.140000
     25 HAE          1.3130     0.0010     4.5140 ha         1 BJ4       0.136000
     26 HAF          3.7650     0.0010     4.6900 ha         1 BJ4       0.156000
     27 HNAK         7.2060    -0.0240     1.4310 hn         1 BJ4       0.339500
     28 HAO          4.5460    -0.0190    -2.2720 ha         1 BJ4       0.145500
     29 HAP          5.8420    -0.0300    -4.3650 ha         1 BJ4       0.137000
     30 HAR          7.8680    -0.2880    -5.4830 hc         1 BJ4       0.047367
     31 HARA         9.3160    -0.7820    -4.5930 hc         1 BJ4       0.047367
     32 HARB         8.9600     0.9360    -4.8200 hc         1 BJ4       0.047367
     33 HAS          9.4850    -0.0400    -2.1340 ha         1 BJ4       0.137000
     34 HAT          8.2080    -0.0250    -0.0280 ha         1 BJ4       0.145500
@<TRIPOS>BOND
     1     1     2 1
     2     2     3 1
     3     3     4 ar
     4     3     8 ar
     5     4     5 ar
     6     5     6 ar
     7     6     7 ar
     8     7     8 ar
     9     7    12 1
    10     8     9 1
    11     9    10 2
    12    10    11 1
    13    10    14 1
    14    11    12 1
    15    12    13 2
    16    14    15 ar
    17    14    20 ar
    18    15    16 ar
    19    16    17 ar
    20    17    18 1
    21    17    19 ar
    22    19    20 ar
    23     1    21 1
    24     1    22 1
    25     1    23 1
    26     4    24 1
    27     5    25 1
    28     6    26 1
    29    11    27 1
    30    15    28 1
    31    16    29 1
    32    18    30 1
    33    18    31 1
    34    18    32 1
    35    19    33 1
    36    20    34 1
@<TRIPOS>SUBSTRUCTURE
     1 BJ4         1 TEMP              0 ****  ****    0 ROOT
