@<TRIPOS>MOLECULE
BJ4
   34    36     1     0     0
SMALL
bcc


@<TRIPOS>ATOM
      1 CAA          0.0000     0.0000     0.0000 c3         1 BJ4       0.237700
      2 OAB          1.4290     0.0000     0.0000 os         1 BJ4      -0.281900
      3 CAC          2.0460     0.0000     1.2110 ca         1 BJ4       0.159100
      4 CAD          1.2990     0.0010     2.3720 ca         1 BJ4      -0.187000
      5 CAE          1.9170     0.0010     3.6150 ca         1 BJ4      -0.080000
      6 CAF          3.2900     0.0010     3.7160 ca         1 BJ4      -0.062000
      7 CAG          4.0680     0.0010     2.5580 ca         1 BJ4      -0.179600
      8 CAH          3.4470    -0.0060     1.2890 ca         1 BJ4       0.121400
      9 NAI          4.2140    -0.0120     0.1810 nc         1 BJ4      -0.510100
     10 CAJ          5.5200    -0.0170     0.2490 cd         1 BJ4       0.344500
     11 NAK          6.2050    -0.0190     1.4350 ns         1 BJ4      -0.017400
     12 CAL          5.5370     0.0020     2.6120 c          1 BJ4       0.618100
     13 OAM          6.1310     0.0020     3.6750 o          1 BJ4      -0.668500
     14 CAN          6.2920    -0.0250    -1.0110 ca         1 BJ4      -0.162900
     15 CAO          5.6290    -0.0240    -2.2390 ca         1 BJ4      -0.066000
     16 CAP          6.3550    -0.0300    -3.4110 ca         1 BJ4      -0.106500
     17 CAQ          7.7390    -0.0370    -3.3730 ca         1 BJ4      -0.069300
     18 CAR          8.5260    -0.0430    -4.6570 c3         1 BJ4       0.060200
     19 CAS          8.4020    -0.0370    -2.1580 ca         1 BJ4      -0.106500
     20 CAT          7.6870    -0.0250    -0.9780 ca         1 BJ4      -0.066000
     21 HAA         -0.3610     0.0010    -1.0210 h1         1 BJ4      -0.001967
     22 HAAA        -0.3610     0.8840     0.5120 h1         1 BJ4      -0.001967
     23 HAAB        -0.3610    -0.8850     0.5090 h1         1 BJ4      -0.001967
     24 HAD          0.2170     0.0000     2.3130 ha         1 BJ4       0.121000
     25 HAE          1.3130     0.0010     4.5140 ha         1 BJ4       0.105000
     26 HAF          3.7650     0.0010     4.6900 ha         1 BJ4       0.127000
     27 HNAK         7.2060    -0.0240     1.4310 hn         1 BJ4       0.190500
     28 HAO          4.5460    -0.0190    -2.2720 ha         1 BJ4       0.117000
     29 HAP          5.8420    -0.0300    -4.3650 ha         1 BJ4       0.110000
     30 HAR          7.8680    -0.2880    -5.4830 hc         1 BJ4       0.010033
     31 HARA         9.3160    -0.7820    -4.5930 hc         1 BJ4       0.010033
     32 HARB         8.9600     0.9360    -4.8200 hc         1 BJ4       0.010033
     33 HAS          9.4850    -0.0400    -2.1340 ha         1 BJ4       0.110000
     34 HAT          8.2080    -0.0250    -0.0280 ha         1 BJ4       0.117000
@<TRIPOS>BOND
     1     1     2 1   
     2     1    21 1   
     3     1    22 1   
     4     1    23 1   
     5     2     3 1   
     6     3     4 ar  
     7     3     8 ar  
     8     4     5 ar  
     9     4    24 1   
    10     5     6 ar  
    11     5    25 1   
    12     6     7 ar  
    13     6    26 1   
    14     7     8 ar  
    15     7    12 1   
    16     8     9 1   
    17     9    10 2   
    18    10    11 1   
    19    10    14 1   
    20    11    12 1   
    21    11    27 1   
    22    12    13 2   
    23    14    15 ar  
    24    14    20 ar  
    25    15    16 ar  
    26    15    28 1   
    27    16    17 ar  
    28    16    29 1   
    29    17    18 1   
    30    17    19 ar  
    31    18    30 1   
    32    18    31 1   
    33    18    32 1   
    34    19    20 ar  
    35    19    33 1   
    36    20    34 1   
@<TRIPOS>SUBSTRUCTURE
     1 BJ4         1 TEMP              0 ****  ****    0 ROOT
