@<TRIPOS>MOLECULE
molecule
   77    79     1     0     0
SMALL
bcc


@<TRIPOS>ATOM
      1 C7           0.0000     0.0000     0.0000 c3         1 BJA      -0.172300
      2 S8           1.8140     0.0000     0.0000 s6         1 BJA       1.321900
      3 C4          -0.5020     0.0000     1.4210 ca         1 BJA      -0.102300
      4 C5          -0.7340    -1.1960     2.0730 ca         1 BJA      -0.110500
      5 C6          -1.1960    -1.1950     3.3750 ca         1 BJA      -0.119000
      6 C1          -1.4260     0.0020     4.0270 ca         1 BJA      -0.107000
      7 C2          -1.1940     1.1990     3.3750 ca         1 BJA      -0.119000
      8 C3          -0.7320     1.1980     2.0710 ca         1 BJA      -0.110500
      9 O28          2.3130     1.2740     0.3810 o          1 BJA      -0.594800
     10 O29          2.3120    -1.1900     0.5960 o          1 BJA      -0.594800
     11 N9           2.2270    -0.1400    -1.5970 n7         1 BJA      -0.899100
     12 C10          1.8580     0.9160    -2.5440 c3         1 BJA       0.187500
     13 C30          1.4990     0.2870    -3.8930 c3         1 BJA      -0.093400
     14 C31          0.2550    -0.5900    -3.7310 c3         1 BJA      -0.104400
     15 C32         -0.0410    -1.3030    -5.0520 c3         1 BJA       0.246800
     16 N33         -1.2310    -2.1420    -4.8980 nu         1 BJA      -0.857200
     17 C34         -1.6920    -2.8840    -5.9600 c2         1 BJA       0.690100
     18 N36         -2.8090    -3.6720    -5.8160 nz         1 BJA      -0.807600
     19 N35         -1.0700    -2.8390    -7.1050 n2         1 BJA      -0.781100
     20 C11          3.0190     1.8590    -2.7240 c          1 BJA       0.670100
     21 O27          4.0530     1.6680    -2.1190 o          1 BJA      -0.543100
     22 N12          2.9090     2.9140    -3.5540 n          1 BJA      -0.484800
     23 C13          3.9580     3.9080    -3.8210 c3         1 BJA       0.047700
     24 C17          4.3500     4.5960    -2.5390 c          1 BJA       0.644100
     25 O26          3.8100     4.2900    -1.4970 o          1 BJA      -0.547100
     26 C14          3.3720     4.9370    -4.8120 c3         1 BJA      -0.092400
     27 C15          1.8420     4.7820    -4.6090 c3         1 BJA      -0.092400
     28 C16          1.7170     3.2580    -4.3520 c3         1 BJA       0.091000
     29 N18          5.3010     5.5500    -2.5500 ns         1 BJA      -0.597900
     30 C19          5.6830     6.2190    -1.3040 c3         1 BJA       0.153300
     31 C20          6.7590     7.2350    -1.5880 ca         1 BJA      -0.054300
     32 C25          8.0900     6.8670    -1.5220 ca         1 BJA      -0.102000
     33 C24          9.0790     7.7920    -1.7860 ca         1 BJA      -0.086000
     34 C23          8.7350     9.1030    -2.1110 ca         1 BJA      -0.192900
     35 C37          9.7910    10.1030    -2.3910 ce         1 BJA       0.541800
     36 N38          9.4670    11.3270    -2.6940 n2         1 BJA      -0.678100
     37 N39         11.1180     9.7360    -2.3310 nz         1 BJA      -0.801600
     38 C22          7.3900     9.4710    -2.1700 ca         1 BJA      -0.086000
     39 C21          6.4100     8.5350    -1.9080 ca         1 BJA      -0.102000
     40 H7          -0.3610     0.8840    -0.5110 h1         1 BJA       0.084700
     41 H7A         -0.3610    -0.8850    -0.5110 h1         1 BJA       0.084700
     42 H5          -0.5530    -2.1340     1.5630 ha         1 BJA       0.133500
     43 H6          -1.3770    -2.1330     3.8860 ha         1 BJA       0.141500
     44 H1          -1.7890     0.0030     5.0480 ha         1 BJA       0.143000
     45 H2          -1.3750     2.1380     3.8850 ha         1 BJA       0.141500
     46 H3          -0.5510     2.1360     1.5600 ha         1 BJA       0.133500
     47 HN9          2.7680    -0.9230    -1.9070 hn         1 BJA       0.462800
     48 H10          1.0040     1.4620    -2.1620 h1         1 BJA       0.073700
     49 H30          2.3260    -0.3200    -4.2400 hc         1 BJA       0.067200
     50 H30A         1.2970     1.0700    -4.6140 hc         1 BJA       0.067200
     51 H31         -0.5910     0.0300    -3.4580 hc         1 BJA       0.055700
     52 H31A         0.4290    -1.3250    -2.9550 hc         1 BJA       0.055700
     53 H32         -0.2160    -0.5670    -5.8280 h1         1 BJA       0.074700
     54 H32A         0.8040    -1.9220    -5.3250 h1         1 BJA       0.074700
     55 HN33        -1.7020    -2.1860    -4.0160 hn         1 BJA       0.455800
     56 HN36        -2.5490    -4.5480    -5.4090 hn         1 BJA       0.469133
     57 HN3A        -3.4690    -3.2100    -5.2200 hn         1 BJA       0.469133
     58 HN35        -1.4040    -3.3790    -7.8790 hn         1 BJA       0.442400
     59 H13          4.8200     3.4220    -4.2640 h1         1 BJA       0.077700
     60 H14          3.6920     5.9400    -4.5540 hc         1 BJA       0.061700
     61 H14A         3.6490     4.6880    -5.8290 hc         1 BJA       0.061700
     62 H15          1.5080     5.3480    -3.7470 hc         1 BJA       0.068200
     63 H15A         1.3030     5.0680    -5.5040 hc         1 BJA       0.068200
     64 H16          1.7240     2.7170    -5.2900 h1         1 BJA       0.043200
     65 H16A         0.8150     3.0440    -3.7920 h1         1 BJA       0.043200
     66 HN18         5.7730     5.7760    -3.4040 hn         1 BJA       0.310500
     67 H19          4.8180     6.7160    -0.8820 h1         1 BJA       0.077200
     68 H19A         6.0570     5.4850    -0.6010 h1         1 BJA       0.077200
     69 H25          8.3570     5.8480    -1.2690 ha         1 BJA       0.166500
     70 H24         10.1210     7.5010    -1.7340 ha         1 BJA       0.141500
     71 HN38        10.1800    12.0020    -2.8830 hn         1 BJA       0.436400
     72 HN39        11.3320     9.4080    -1.4100 hn         1 BJA       0.466133
     73 HN3B        11.6930    10.5270    -2.5440 hn         1 BJA       0.466133
     74 H22          7.1160    10.4880    -2.4220 ha         1 BJA       0.141500
     75 H21          5.3660     8.8190    -1.9540 ha         1 BJA       0.166500
     76 H363        -3.2180    -3.8390    -6.7140 hn         1 BJA       0.469133
     77 H393        11.2950     9.0120    -2.9980 hn         1 BJA       0.466133
@<TRIPOS>BOND
     1     6     7 ar
     2     6     5 ar
     3     7     8 ar
     4     8     3 ar
     5     3     4 ar
     6     3     1 1
     7     4     5 ar
     8     1     2 1
     9     2    11 1
    10     2     9 2
    11     2    10 2
    12    11    12 1
    13    12    20 1
    14    12    13 1
    15    20    22 1
    16    20    21 2
    17    22    23 1
    18    22    28 1
    19    23    26 1
    20    23    24 1
    21    26    27 1
    22    27    28 1
    23    24    29 1
    24    24    25 2
    25    29    30 1
    26    30    31 1
    27    31    39 ar
    28    31    32 ar
    29    39    38 ar
    30    38    34 ar
    31    34    33 ar
    32    34    35 1
    33    33    32 ar
    34    13    14 1
    35    14    15 1
    36    15    16 1
    37    16    17 1
    38    17    19 2
    39    17    18 1
    40    35    36 2
    41    35    37 1
    42     6    44 1
    43     7    45 1
    44     8    46 1
    45     4    42 1
    46     5    43 1
    47     1    40 1
    48     1    41 1
    49    11    47 1
    50    12    48 1
    51    23    59 1
    52    26    60 1
    53    26    61 1
    54    27    62 1
    55    27    63 1
    56    28    64 1
    57    28    65 1
    58    29    66 1
    59    30    67 1
    60    30    68 1
    61    39    75 1
    62    38    74 1
    63    33    70 1
    64    32    69 1
    65    13    49 1
    66    13    50 1
    67    14    51 1
    68    14    52 1
    69    15    53 1
    70    15    54 1
    71    16    55 1
    72    19    58 1
    73    18    56 1
    74    18    57 1
    75    36    71 1
    76    37    72 1
    77    37    73 1
    78    76    18 1
    79    77    37 1
@<TRIPOS>SUBSTRUCTURE
     1 BJA         1 TEMP              0 ****  ****    0 ROOT
