@<TRIPOS>MOLECULE
BJA
   77    79     1     0     0
SMALL
bcc


@<TRIPOS>ATOM
      1 C7           0.0000     0.0000     0.0000 c3         1 BJA       0.054700
      2 S8           1.8140     0.0000     0.0000 s6         1 BJA       0.951900
      3 C4          -0.5020     0.0000     1.4210 ca         1 BJA      -0.103300
      4 C5          -0.7340    -1.1960     2.0730 ca         1 BJA      -0.086500
      5 C6          -1.1960    -1.1950     3.3750 ca         1 BJA      -0.088500
      6 C1          -1.4260     0.0020     4.0270 ca         1 BJA      -0.081000
      7 C2          -1.1940     1.1990     3.3750 ca         1 BJA      -0.088500
      8 C3          -0.7320     1.1980     2.0710 ca         1 BJA      -0.086500
      9 O28          2.3130     1.2740     0.3810 o          1 BJA      -0.550300
     10 O29          2.3120    -1.1900     0.5960 o          1 BJA      -0.550300
     11 N9           2.2270    -0.1400    -1.5970 n7         1 BJA      -0.583100
     12 C10          1.8580     0.9160    -2.5440 c3         1 BJA       0.144500
     13 C30          1.4990     0.2870    -3.8930 c3         1 BJA      -0.057400
     14 C31          0.2550    -0.5900    -3.7310 c3         1 BJA      -0.035400
     15 C32         -0.0410    -1.3030    -5.0520 c3         1 BJA       0.165800
     16 N33         -1.2310    -2.1420    -4.8980 nu         1 BJA      -0.490200
     17 C34         -1.6920    -2.8840    -5.9600 c2         1 BJA       0.244100
     18 N36         -2.8090    -3.6720    -5.8160 nz         1 BJA       0.197400
     19 N35         -1.0700    -2.8390    -7.1050 n2         1 BJA      -0.614100
     20 C11          3.0190     1.8590    -2.7240 c          1 BJA       0.591100
     21 O27          4.0530     1.6680    -2.1190 o          1 BJA      -0.580100
     22 N12          2.9090     2.9140    -3.5540 n          1 BJA      -0.149800
     23 C13          3.9580     3.9080    -3.8210 c3         1 BJA      -0.029300
     24 C17          4.3500     4.5960    -2.5390 c          1 BJA       0.557100
     25 O26          3.8100     4.2900    -1.4970 o          1 BJA      -0.583100
     26 C14          3.3720     4.9370    -4.8120 c3         1 BJA      -0.030400
     27 C15          1.8420     4.7820    -4.6090 c3         1 BJA      -0.028400
     28 C16          1.7170     3.2580    -4.3520 c3         1 BJA       0.042000
     29 N18          5.3010     5.5500    -2.5500 ns         1 BJA      -0.213900
     30 C19          5.6830     6.2190    -1.3040 c3         1 BJA       0.103300
     31 C20          6.7590     7.2350    -1.5880 ca         1 BJA      -0.061300
     32 C25          8.0900     6.8670    -1.5220 ca         1 BJA      -0.054500
     33 C24          9.0790     7.7920    -1.7860 ca         1 BJA      -0.073000
     34 C23          8.7350     9.1030    -2.1110 ca         1 BJA      -0.225900
     35 C37          9.7910    10.1030    -2.3910 ce         1 BJA       0.209800
     36 N38          9.4670    11.3270    -2.6940 n2         1 BJA      -0.479100
     37 N39         11.1180     9.7360    -2.3310 nz         1 BJA       0.190400
     38 C22          7.3900     9.4710    -2.1700 ca         1 BJA      -0.073000
     39 C21          6.4100     8.5350    -1.9080 ca         1 BJA      -0.054500
     40 H7          -0.3610    -0.8850    -0.5110 h1         1 BJA       0.053200
     41 H7A         -0.3610     0.8840    -0.5110 h1         1 BJA       0.053200
     42 H5          -0.5530    -2.1340     1.5630 ha         1 BJA       0.108000
     43 H6          -1.3770    -2.1330     3.8860 ha         1 BJA       0.110500
     44 H1          -1.7890     0.0030     5.0480 ha         1 BJA       0.111000
     45 H2          -1.3750     2.1380     3.8850 ha         1 BJA       0.110500
     46 H3          -0.5510     2.1360     1.5600 ha         1 BJA       0.108000
     47 HN9          2.7720    -0.9210    -1.9060 hn         1 BJA       0.357800
     48 H10          1.0040     1.4620    -2.1620 h1         1 BJA       0.042700
     49 H30          1.2970     1.0700    -4.6140 hc         1 BJA       0.038700
     50 H30A         2.3260    -0.3200    -4.2400 hc         1 BJA       0.038700
     51 H31         -0.5910     0.0300    -3.4580 hc         1 BJA       0.028700
     52 H31A         0.4290    -1.3250    -2.9550 hc         1 BJA       0.028700
     53 H32          0.8040    -1.9220    -5.3250 h1         1 BJA       0.032200
     54 H32A        -0.2160    -0.5670    -5.8280 h1         1 BJA       0.032200
     55 HN33        -1.7090    -2.1770    -4.0190 hn         1 BJA       0.307800
     56 HN36        -2.6060    -4.4280    -5.1920 hn         1 BJA       0.224800
     57 HN3A        -3.5590    -3.1230    -5.4420 hn         1 BJA       0.224800
     58 HN35        -0.2560    -2.2660    -7.2120 hn         1 BJA       0.383400
     59 H13          4.8200     3.4220    -4.2640 h1         1 BJA       0.044700
     60 H14          3.6920     5.9400    -4.5540 hc         1 BJA       0.027200
     61 H14A         3.6490     4.6880    -5.8290 hc         1 BJA       0.027200
     62 H15          1.5080     5.3480    -3.7470 hc         1 BJA       0.034200
     63 H15A         1.3030     5.0680    -5.5040 hc         1 BJA       0.034200
     64 H16          0.8150     3.0440    -3.7920 h1         1 BJA       0.015700
     65 H16A         1.7240     2.7170    -5.2900 h1         1 BJA       0.015700
     66 HN18         5.7690     5.7800    -3.4050 hn         1 BJA       0.171500
     67 H19          6.0570     5.4850    -0.6010 h1         1 BJA       0.044700
     68 H19A         4.8190     6.7160    -0.8820 h1         1 BJA       0.044700
     69 H25          8.3570     5.8480    -1.2690 ha         1 BJA       0.132500
     70 H24         10.1210     7.5010    -1.7340 ha         1 BJA       0.101000
     71 HN38         8.5030    11.5940    -2.7380 hn         1 BJA       0.380400
     72 HN39        11.6930    10.5310    -2.5290 hn         1 BJA       0.222800
     73 HN3B        11.2970     9.0190    -3.0050 hn         1 BJA       0.222800
     74 H22          7.1160    10.4880    -2.4220 ha         1 BJA       0.101000
     75 H21          5.3660     8.8190    -1.9540 ha         1 BJA       0.132500
     76 H363        -3.0700    -4.0470    -6.7060 hn         1 BJA       0.224800
     77 H393        11.3270     9.3890    -1.4160 hn         1 BJA       0.222800
@<TRIPOS>BOND
     1     1     2 1   
     2     1     3 1   
     3     1    40 1   
     4     1    41 1   
     5     2     9 2   
     6     2    10 2   
     7     2    11 1   
     8     3     4 ar  
     9     3     8 ar  
    10     4     5 ar  
    11     4    42 1   
    12     5     6 ar  
    13     5    43 1   
    14     6     7 ar  
    15     6    44 1   
    16     7     8 ar  
    17     7    45 1   
    18     8    46 1   
    19    11    12 1   
    20    11    47 1   
    21    12    13 1   
    22    12    20 1   
    23    12    48 1   
    24    13    14 1   
    25    13    49 1   
    26    13    50 1   
    27    14    15 1   
    28    14    51 1   
    29    14    52 1   
    30    15    16 1   
    31    15    53 1   
    32    15    54 1   
    33    16    17 1   
    34    16    55 1   
    35    17    18 1   
    36    17    19 2   
    37    18    56 1   
    38    18    57 1   
    39    18    76 1   
    40    19    58 1   
    41    20    21 2   
    42    20    22 1   
    43    22    23 1   
    44    22    28 1   
    45    23    24 1   
    46    23    26 1   
    47    23    59 1   
    48    24    25 2   
    49    24    29 1   
    50    26    27 1   
    51    26    60 1   
    52    26    61 1   
    53    27    28 1   
    54    27    62 1   
    55    27    63 1   
    56    28    64 1   
    57    28    65 1   
    58    29    30 1   
    59    29    66 1   
    60    30    31 1   
    61    30    67 1   
    62    30    68 1   
    63    31    32 ar  
    64    31    39 ar  
    65    32    33 ar  
    66    32    69 1   
    67    33    34 ar  
    68    33    70 1   
    69    34    35 1   
    70    34    38 ar  
    71    35    36 2   
    72    35    37 1   
    73    36    71 1   
    74    37    72 1   
    75    37    73 1   
    76    37    77 1   
    77    38    39 ar  
    78    38    74 1   
    79    39    75 1   
@<TRIPOS>SUBSTRUCTURE
     1 BJA         1 TEMP              0 ****  ****    0 ROOT
