@<TRIPOS>MOLECULE
molecule
   42    45     1     0     0
SMALL
bcc


@<TRIPOS>ATOM
      1 C2           0.0000     0.0000     0.0000 cc         1 BJB      -0.010300
      2 C7           2.1480    -0.0000     4.0550 ca         1 BJB       0.012400
      3 C8           3.2600     0.0010     3.2220 ca         1 BJB      -0.120000
      4 C9           3.1110    -0.0000     1.8530 ca         1 BJB      -0.120000
      5 C4           0.7140     0.0000     2.1420 ca         1 BJB      -0.067800
      6 C31         -0.8650     0.0050    -1.2340 c3         1 BJB      -0.038200
      7 C32         -1.2640     1.4440    -1.5700 c3         1 BJB      -0.054400
      8 C25          1.8570    -5.8900    -3.9570 cc         1 BJB       0.406100
      9 C17          1.7560    -3.5620    -3.1400 ca         1 BJB      -0.088100
     10 C19          3.7230    -3.7330    -1.7510 ca         1 BJB      -0.098000
     11 C18          2.8170    -4.3320    -2.6500 ca         1 BJB       0.161400
     12 C5           1.8370     0.0000     1.2950 ca         1 BJB      -0.040200
     13 C6           0.8860    -0.0000     3.5280 ca         1 BJB      -0.088000
     14 N1           1.3680     0.0000     0.0000 na         1 BJB      -0.206900
     15 C3          -0.4580    -0.0000     1.2620 cd         1 BJB      -0.178200
     16 Cl1          2.3610     0.0000     5.7780 cl         1 BJB      -0.131400
     17 S14          2.3200    -0.0000    -1.3550 sy         1 BJB       1.410300
     18 C15          2.5070    -1.6780    -1.8600 ca         1 BJB      -0.310500
     19 C16          1.6070    -2.2360    -2.7410 ca         1 BJB       0.038000
     20 C20          3.5620    -2.4360    -1.3730 ca         1 BJB      -0.039000
     21 S24          0.8090    -4.5720    -4.2290 ss         1 BJB      -0.072100
     22 N26          2.7970    -5.5850    -3.1450 nd         1 BJB      -0.589100
     23 O29          1.5680     0.6440    -2.3740 o          1 BJB      -0.601300
     24 O30          3.6060     0.4400    -0.9430 o          1 BJB      -0.601300
     25 C35         -2.1430     1.4500    -2.8230 c3         1 BJB      -0.181400
     26 C38         -2.5350     2.8670    -3.1540 c          1 BJB       0.894600
     27 O41         -3.3110     3.1160    -4.2210 o          1 BJB      -0.853300
     28 O42         -2.1520     3.7780    -2.4590 o          1 BJB      -0.853300
     29 H1           4.2530     0.0010     3.6530 ha         1 BJB       0.140000
     30 H2           3.9850     0.0010     1.2110 ha         1 BJB       0.161000
     31 H3          -0.3120    -0.4190    -2.0640 hc         1 BJB       0.048200
     32 H4          -1.7550    -0.5840    -1.0540 hc         1 BJB       0.048200
     33 H5          -0.3740     2.0330    -1.7510 hc         1 BJB       0.060200
     34 H6          -1.8160     1.8690    -0.7400 hc         1 BJB       0.060200
     35 H9           0.0230    -0.0010     4.1830 ha         1 BJB       0.143000
     36 H10         -1.4840    -0.1680     1.5670 ha         1 BJB       0.162000
     37 H11          0.8230    -1.6260    -3.1730 ha         1 BJB       0.172000
     38 H12          4.2690    -1.9880    -0.6840 ha         1 BJB       0.153000
     39 H13         -3.0340     0.8610    -2.6420 hc         1 BJB       0.027700
     40 H14         -1.5910     1.0250    -3.6530 hc         1 BJB       0.027700
     41 H7           1.7420    -6.8650    -4.4160 h5         1 BJB       0.066800
     42 H8           4.5530    -4.3090    -1.3590 ha         1 BJB       0.147000
@<TRIPOS>BOND
     1     8    22 2
     2     8    21 1
     3    22    11 1
     4    21     9 1
     5    11    10 ar
     6    11     9 ar
     7    10    20 ar
     8     9    19 ar
     9    20    18 ar
    10    19    18 ar
    11    18    17 1
    12     6     1 1
    13     6     7 1
    14    17    23 2
    15    17    14 1
    16    17    24 2
    17     1    14 1
    18     1    15 2
    19    14    12 1
    20    28    26 1
    21    25     7 1
    22    25    26 1
    23    15     5 1
    24    12     5 ar
    25    12     4 ar
    26     5    13 ar
    27     4     3 ar
    28    26    27 1
    29    13     2 ar
    30     3     2 ar
    31     2    16 1
    32     3    29 1
    33     4    30 1
    34     6    31 1
    35     6    32 1
    36     7    33 1
    37     7    34 1
    38     8    41 1
    39    10    42 1
    40    13    35 1
    41    15    36 1
    42    19    37 1
    43    20    38 1
    44    25    39 1
    45    25    40 1
@<TRIPOS>SUBSTRUCTURE
     1 BJB         1 TEMP              0 ****  ****    0 ROOT
