@<TRIPOS>MOLECULE
molecule
   92    95     1     0     0
SMALL
bcc


@<TRIPOS>ATOM
      1 N1           0.0000     0.0000     0.0000 n          1 BJC      -0.473800
      2 C2           1.4580     0.0000     0.0000 c3         1 BJC       0.104000
      3 C5           1.9930     0.0000     1.4320 c3         1 BJC      -0.100400
      4 C8           1.3040    -1.1270     2.2140 c3         1 BJC      -0.087400
      5 C11         -0.1750    -0.7710     2.3710 c3         1 BJC      -0.148400
      6 C14         -0.7470    -0.3630     1.0440 c          1 BJC       0.702500
      7 O15         -1.9530    -0.3620     0.9140 o          1 BJC      -0.663500
      8 C16         -0.6870     0.4290    -1.2200 c3         1 BJC       0.131400
      9 C17         -1.5740     1.6360    -0.9080 c3         1 BJC      -0.088700
     10 C19         -2.3120     2.0690    -2.1770 c3         1 BJC      -0.055400
     11 C22         -3.1990     3.2750    -1.8640 c3         1 BJC      -0.141700
     12 C24         -2.3310     4.4300    -1.3610 c3         1 BJC      -0.073400
     13 C27         -1.5930     3.9980    -0.0920 c3         1 BJC      -0.078400
     14 C30         -0.7050     2.7900    -0.4040 c3         1 BJC      -0.078400
     15 C33         -3.9260     3.7010    -3.1150 c          1 BJC       0.658100
     16 O34         -3.7510     3.0990    -4.1530 o          1 BJC      -0.598100
     17 N35         -4.7690     4.7510    -3.0790 ns         1 BJC      -0.583900
     18 C37         -5.4760     5.1660    -4.2940 c3         1 BJC       0.117700
     19 C39         -5.8420     6.6480    -4.1900 c3         1 BJC       0.135100
     20 O41         -6.7780     6.8330    -3.1260 oh         1 BJC      -0.594800
     21 C43         -6.4690     7.1110    -5.5070 c3         1 BJC       0.137800
     22 N46         -6.7110     8.5590    -5.4520 n7         1 BJC      -0.812200
     23 C48         -7.3120     9.0410    -6.7020 c3         1 BJC       0.207100
     24 C51         -7.5460    10.5260    -6.6080 ca         1 BJC      -0.086300
     25 C52         -6.5610    11.4080    -7.0120 ca         1 BJC      -0.124000
     26 C54         -6.7740    12.7700    -6.9260 ca         1 BJC      -0.077300
     27 C55         -7.9740    13.2520    -6.4350 ca         1 BJC      -0.121000
     28 C57         -8.9590    12.3710    -6.0310 ca         1 BJC      -0.128000
     29 C59         -8.7470    11.0080    -6.1210 ca         1 BJC      -0.108000
     30 C61         -5.7010    13.7320    -7.3660 c3         1 BJC      -0.030400
     31 C63         -6.2370    14.6110    -8.4970 c3         1 BJC      -0.085100
     32 C67         -5.2900    14.6130    -6.1850 c3         1 BJC      -0.085100
     33 C71         -6.7500     4.3340    -4.4510 c3         1 BJC      -0.047100
     34 C74         -6.3840     2.8900    -4.6750 ca         1 BJC      -0.068300
     35 C75         -6.2370     2.0380    -3.5970 ca         1 BJC      -0.118000
     36 C77         -5.9020     0.7130    -3.8030 ca         1 BJC      -0.120500
     37 C79         -5.7110     0.2400    -5.0880 ca         1 BJC      -0.128000
     38 C81         -5.8580     1.0920    -6.1660 ca         1 BJC      -0.120500
     39 C83         -6.1990     2.4160    -5.9610 ca         1 BJC      -0.118000
     40 C85          0.3480     0.8160    -2.2790 c3         1 BJC      -0.100600
     41 C89         -1.5530    -0.7170    -1.7490 c3         1 BJC      -0.100600
     42 H2           1.8140    -0.8850    -0.5130 h1         1 BJC       0.046200
     43 H2A          1.8140     0.8850    -0.5130 h1         1 BJC       0.046200
     44 H5           1.7750     0.9520     1.9010 hc         1 BJC       0.052700
     45 H5A          3.0630    -0.1690     1.4200 hc         1 BJC       0.052700
     46 H8           1.7610    -1.2230     3.1910 hc         1 BJC       0.049700
     47 H8A          1.3980    -2.0580     1.6680 hc         1 BJC       0.049700
     48 H11         -0.2740     0.0500     3.0710 hc         1 BJC       0.073700
     49 H11A        -0.7140    -1.6340     2.7430 hc         1 BJC       0.073700
     50 H17         -2.2960     1.3710    -0.1450 hc         1 BJC       0.093700
     51 H19         -1.5900     2.3400    -2.9380 hc         1 BJC       0.060200
     52 H19A        -2.9280     1.2510    -2.5320 hc         1 BJC       0.060200
     53 H22         -3.9160     3.0050    -1.0990 hc         1 BJC       0.069700
     54 H24         -1.6090     4.6960    -2.1240 hc         1 BJC       0.041700
     55 H24A        -2.9600     5.2830    -1.1390 hc         1 BJC       0.041700
     56 H27         -0.9770     4.8160     0.2620 hc         1 BJC       0.042200
     57 H27A        -2.3150     3.7270     0.6690 hc         1 BJC       0.042200
     58 H30         -0.1850     2.4840     0.4950 hc         1 BJC       0.041200
     59 H30A         0.0130     3.0600    -1.1690 hc         1 BJC       0.041200
     60 HN35        -4.9310     5.2340    -2.2170 hn         1 BJC       0.316500
     61 H37         -4.8360     5.0110    -5.1540 h1         1 BJC       0.084700
     62 H39         -4.9490     7.2280    -3.9910 h1         1 BJC       0.035700
     63 HO41        -6.5040     7.5580    -2.5890 ho         1 BJC       0.406000
     64 H43         -7.4080     6.5930    -5.6620 h1         1 BJC       0.046200
     65 H43A        -5.7940     6.8890    -6.3260 h1         1 BJC       0.046200
     66 HN46        -5.8460     9.0360    -5.2920 hn         1 BJC       0.349800
     67 H48         -8.2560     8.5360    -6.8660 h1         1 BJC       0.039200
     68 H48A        -6.6430     8.8320    -7.5280 h1         1 BJC       0.039200
     69 H52         -5.6210    11.0300    -7.3970 ha         1 BJC       0.126000
     70 H55         -8.1410    14.3200    -6.3650 ha         1 BJC       0.131000
     71 H57         -9.8990    12.7480    -5.6470 ha         1 BJC       0.130000
     72 H59         -9.5190    10.3170    -5.8040 ha         1 BJC       0.136000
     73 H61         -4.8410    13.1760    -7.7180 hc         1 BJC       0.052700
     74 H63         -5.4160    15.1500    -8.9550 hc         1 BJC       0.036367
     75 H63A        -6.9540    15.3180    -8.0970 hc         1 BJC       0.036367
     76 H63B        -6.7200    13.9890    -9.2410 hc         1 BJC       0.036367
     77 H67         -6.0720    15.3340    -5.9820 hc         1 BJC       0.036367
     78 H67A        -4.3720    15.1350    -6.4260 hc         1 BJC       0.036367
     79 H67B        -5.1340    13.9940    -5.3100 hc         1 BJC       0.036367
     80 H71         -7.3500     4.4190    -3.5530 hc         1 BJC       0.060200
     81 H71A        -7.3170     4.6990    -5.2990 hc         1 BJC       0.060200
     82 H75         -6.3870     2.4090    -2.5900 ha         1 BJC       0.122000
     83 H77         -5.7870     0.0460    -2.9580 ha         1 BJC       0.124000
     84 H79         -5.4460    -0.7980    -5.2490 ha         1 BJC       0.123000
     85 H81         -5.7110     0.7210    -7.1740 ha         1 BJC       0.124000
     86 H83         -6.3140     3.0830    -6.8060 ha         1 BJC       0.122000
     87 H85         -0.1590     1.0930    -3.1950 hc         1 BJC       0.046367
     88 H85A         0.9330     1.6560    -1.9230 hc         1 BJC       0.046367
     89 H85B         1.0030    -0.0250    -2.4680 hc         1 BJC       0.046367
     90 H89         -2.5350    -0.6660    -1.2950 hc         1 BJC       0.046367
     91 H89A        -1.6470    -0.6310    -2.8240 hc         1 BJC       0.046367
     92 H89B        -1.0890    -1.6640    -1.5010 hc         1 BJC       0.046367
@<TRIPOS>BOND
     1     1     2 1
     2     1     6 1
     3     1     8 1
     4     2     3 1
     5     3     4 1
     6     4     5 1
     7     5     6 1
     8     6     7 2
     9     8     9 1
    10     8    40 1
    11     8    41 1
    12     9    10 1
    13     9    14 1
    14    10    11 1
    15    11    12 1
    16    11    15 1
    17    12    13 1
    18    13    14 1
    19    15    16 2
    20    15    17 1
    21    17    18 1
    22    18    19 1
    23    18    33 1
    24    19    20 1
    25    19    21 1
    26    21    22 1
    27    22    23 1
    28    23    24 1
    29    24    25 ar
    30    24    29 ar
    31    25    26 ar
    32    26    27 ar
    33    26    30 1
    34    27    28 ar
    35    28    29 ar
    36    30    31 1
    37    30    32 1
    38    33    34 1
    39    34    35 ar
    40    34    39 ar
    41    35    36 ar
    42    36    37 ar
    43    37    38 ar
    44    38    39 ar
    45     2    42 1
    46     2    43 1
    47     3    44 1
    48     3    45 1
    49     4    46 1
    50     4    47 1
    51     5    48 1
    52     5    49 1
    53     9    50 1
    54    10    51 1
    55    10    52 1
    56    11    53 1
    57    12    54 1
    58    12    55 1
    59    13    56 1
    60    13    57 1
    61    14    58 1
    62    14    59 1
    63    17    60 1
    64    18    61 1
    65    19    62 1
    66    20    63 1
    67    21    64 1
    68    21    65 1
    69    22    66 1
    70    23    67 1
    71    23    68 1
    72    25    69 1
    73    27    70 1
    74    28    71 1
    75    29    72 1
    76    30    73 1
    77    31    74 1
    78    31    75 1
    79    31    76 1
    80    32    77 1
    81    32    78 1
    82    32    79 1
    83    33    80 1
    84    33    81 1
    85    35    82 1
    86    36    83 1
    87    37    84 1
    88    38    85 1
    89    39    86 1
    90    40    87 1
    91    40    88 1
    92    40    89 1
    93    41    90 1
    94    41    91 1
    95    41    92 1
@<TRIPOS>SUBSTRUCTURE
     1 BJC         1 TEMP              0 ****  ****    0 ROOT
