@<TRIPOS>MOLECULE
molecule
   86    91     1     0     0
SMALL
bcc


@<TRIPOS>ATOM
      1 Cl9          0.0000     0.0000     0.0000 cl         1 BJD      -0.095400
      2 C70          1.7360     0.0000     0.0000 ca         1 BJD       0.057400
      3 C69          2.4250     0.0000     1.2020 ca         1 BJD      -0.083300
      4 C81          1.6670    -0.0000     2.5030 c3         1 BJD       0.189100
      5 N83          1.1110     1.3370     2.7460 n7         1 BJD      -0.772200
      6 C85          0.3620     1.3740     4.0100 c3         1 BJD       0.188100
      7 C87         -0.1920     2.7590     4.2250 ca         1 BJD      -0.083300
      8 C93         -1.4450     3.0850     3.7410 ca         1 BJD      -0.115000
      9 C92         -1.9530     4.3550     3.9390 ca         1 BJD      -0.129500
     10 C91         -1.2080     5.2990     4.6200 ca         1 BJD      -0.126000
     11 C90          0.0450     4.9740     5.1050 ca         1 BJD      -0.129500
     12 C89          0.5520     3.7020     4.9110 ca         1 BJD      -0.115000
     13 C68          3.8050    -0.0010     1.2080 ca         1 BJD      -0.096000
     14 C71          2.4260    -0.0040    -1.2010 ca         1 BJD      -0.127000
     15 C72          3.8040    -0.0050    -1.2080 ca         1 BJD      -0.099000
     16 C66          4.5060    -0.0000     0.0010 ca         1 BJD       0.033000
     17 C64          5.9380    -0.0010     0.0010 cg         1 BJD      -0.119000
     18 C62          7.1120     0.0000    -0.0200 ch         1 BJD      -0.084000
     19 C50          8.7230     0.1040     0.2030 ca         1 BJD       0.039000
     20 C49          9.4880     1.0440     0.8670 ca         1 BJD      -0.116000
     21 C51          9.4840    -1.0200    -0.4260 ca         1 BJD       0.004400
     22 Cl6          8.8700    -2.2380    -1.1510 cl         1 BJD       0.024600
     23 C52         10.6830    -0.8060    -0.1750 ca         1 BJD      -0.157000
     24 C53         11.3930     0.3010     0.5890 ca         1 BJD      -0.102000
     25 C47         10.6850     1.3210     1.1580 ca         1 BJD      -0.053500
     26 C22         11.2120     2.4390     1.9110 cd         1 BJD       0.328800
     27 N21         10.8360     3.7260     1.7440 nc         1 BJD      -0.539800
     28 C23         12.5270     2.4870     2.4510 cd         1 BJD      -0.170600
     29 C33         13.3440     1.6120     2.7950 c3         1 BJD       0.323100
     30 N32         14.8160     1.7250     2.8080 n3         1 BJD      -0.823500
     31 S39         16.2500     0.7170     2.8330 s6         1 BJD       1.731900
     32 O43         17.1890     1.0810     3.5330 o          1 BJD      -0.727800
     33 O45         15.9610    -0.4820     2.6970 o          1 BJD      -0.727800
     34 C41         16.6210     1.0410     0.8260 c3         1 BJD      -0.192300
     35 C31         14.8660     2.9780     3.4770 c3         1 BJD       0.176800
     36 C30         14.2760     4.2230     3.1530 c3         1 BJD       0.023900
     37 C24         12.6460     3.8300     2.4870 cc         1 BJD      -0.320600
     38 N19         11.6000     4.5060     2.0510 na         1 BJD       0.376400
     39 C17         11.5890     5.8570     2.1270 c3         1 BJD       0.022300
     40 C15         10.8090     6.9060     2.8130 c3         1 BJD      -0.086400
     41 C13         11.3340     8.3070     3.0600 c3         1 BJD       0.144800
     42 N2          10.4710     9.2700     3.7530 n3         1 BJD      -0.687600
     43 C3          11.1030    10.4740     3.8880 c3         1 BJD       0.098800
     44 C4          10.2420    11.6720     4.6590 c3         1 BJD       0.172400
     45 O5           9.7750    11.0470     5.7760 os         1 BJD      -0.415600
     46 C6           9.2230     9.8470     5.7500 c3         1 BJD       0.172400
     47 C1          10.1100     8.5250     5.0300 c3         1 BJD       0.098800
     48 H1           0.8080    -0.6560     2.4200 h1         1 BJD       0.046700
     49 H2           2.3140    -0.3510     3.2980 h1         1 BJD       0.046700
     50 H3           1.8570     1.9870     2.8940 hn         1 BJD       0.344800
     51 H5           1.0550     1.3260     4.8410 h1         1 BJD       0.038200
     52 H6          -0.3140     0.5300     4.0540 h1         1 BJD       0.038200
     53 H7          -2.0000     2.3680     3.1480 ha         1 BJD       0.131000
     54 H8          -2.9360     4.6100     3.5600 ha         1 BJD       0.128500
     55 H9          -1.6070     6.2950     4.7750 ha         1 BJD       0.128000
     56 H10          0.6280     5.7140     5.6390 ha         1 BJD       0.128500
     57 H11          1.5590     3.4680     5.2330 ha         1 BJD       0.131000
     58 H12          4.3420    -0.0010     2.1490 ha         1 BJD       0.143000
     59 H13          1.8820    -0.0260    -2.1370 ha         1 BJD       0.147000
     60 H14          4.3410    -0.0080    -2.1490 ha         1 BJD       0.145000
     61 H15          8.8430     1.8730     1.1330 ha         1 BJD       0.116000
     62 H16         11.3630    -1.5490    -0.5730 ha         1 BJD       0.119000
     63 H17         12.4710     0.2690     0.6830 ha         1 BJD       0.136000
     64 H18         13.1260     0.7530     2.1710 h1         1 BJD       0.046200
     65 H19         13.0670     1.3410     3.8070 h1         1 BJD       0.046200
     66 H20         15.7360     0.7970     0.2510 h1         1 BJD       0.057700
     67 H21         16.8770     2.0820     0.6690 h1         1 BJD       0.057700
     68 H22         17.4440     0.4140     0.5040 h1         1 BJD       0.057700
     69 H23         14.2800     2.8440     4.3790 h1         1 BJD       0.028200
     70 H24         15.9150     3.1500     3.6840 h1         1 BJD       0.028200
     71 H25         14.7460     4.6130     2.2580 hc         1 BJD       0.060700
     72 H26         14.3160     4.8690     4.0220 hc         1 BJD       0.060700
     73 H27         12.6060     6.0860     2.4240 h1         1 BJD       0.060200
     74 H28         11.5190     6.1520     1.0870 h1         1 BJD       0.060200
     75 H29          9.8890     7.0190     2.2530 hc         1 BJD       0.055200
     76 H30         10.5430     6.5040     3.7830 hc         1 BJD       0.055200
     77 H31         11.2600     8.8520     2.1270 h1         1 BJD       0.036700
     78 H32         12.3850     8.2220     3.3100 h1         1 BJD       0.036700
     79 H34         11.1870    10.9200     2.9040 h1         1 BJD       0.045450
     80 H35         12.1010    10.2880     4.2660 h1         1 BJD       0.045450
     81 H36         10.8920    12.4960     4.9280 h1         1 BJD       0.047950
     82 H37          9.4200    12.0100     4.0390 h1         1 BJD       0.047950
     83 H38          8.2840     9.9340     5.2180 h1         1 BJD       0.047950
     84 H39          9.0030     9.5700     6.7740 h1         1 BJD       0.047950
     85 H40          9.3960     7.7320     4.8470 h1         1 BJD       0.045450
     86 H41         10.9910     8.1810     5.5600 h1         1 BJD       0.045450
@<TRIPOS>BOND
     1    45    46 1
     2    45    44 1
     3    46    47 1
     4    44    43 1
     5    47    42 1
     6    43    42 1
     7    42    41 1
     8    41    40 1
     9    40    39 1
    10    39    38 1
    11     1     2 1
    12    38    27 1
    13    38    37 1
    14     4     3 1
    15     4     5 1
    16     2     3 ar
    17     2    14 ar
    18    27    26 2
    19    36    37 1
    20    36    35 1
    21     3    13 ar
    22    37    28 2
    23    14    15 ar
    24    13    16 ar
    25    15    16 ar
    26    16    17 1
    27    35    30 1
    28    26    28 1
    29    26    25 1
    30    17    18 3
    31    28    29 1
    32    20    25 ar
    33    20    19 ar
    34    18    19 1
    35    25    24 ar
    36    19    21 ar
    37    29    30 1
    38     5     6 1
    39    24    23 ar
    40    21    23 ar
    41    21    22 1
    42    30    31 1
    43    34    31 1
    44     6     7 1
    45    31    32 2
    46    31    33 2
    47     7     8 ar
    48     7    12 ar
    49     8     9 ar
    50    12    11 ar
    51     9    10 ar
    52    11    10 ar
    53     4    48 1
    54     4    49 1
    55     5    50 1
    56     6    51 1
    57     6    52 1
    58     8    53 1
    59     9    54 1
    60    10    55 1
    61    11    56 1
    62    12    57 1
    63    13    58 1
    64    14    59 1
    65    15    60 1
    66    20    61 1
    67    23    62 1
    68    24    63 1
    69    29    64 1
    70    29    65 1
    71    34    66 1
    72    34    67 1
    73    34    68 1
    74    35    69 1
    75    35    70 1
    76    36    71 1
    77    36    72 1
    78    39    73 1
    79    39    74 1
    80    40    75 1
    81    40    76 1
    82    41    77 1
    83    41    78 1
    84    43    79 1
    85    43    80 1
    86    44    81 1
    87    44    82 1
    88    46    83 1
    89    46    84 1
    90    47    85 1
    91    47    86 1
@<TRIPOS>SUBSTRUCTURE
     1 BJD         1 TEMP              0 ****  ****    0 ROOT
