@<TRIPOS>MOLECULE
BJE
   26    28     1     0     0
SMALL
bcc


@<TRIPOS>ATOM
      1 O3'          0.0000     0.0000     0.0000 oh         1 BJE      -0.559800
      2 C3'          1.4290     0.0000     0.0000 c3         1 BJE       0.172100
      3 C2'          1.9690     0.0000     1.4210 c3         1 BJE       0.083100
      4 O2           1.1410     0.3280     2.5540 os         1 BJE      -0.326400
      5 C2           1.6650    -0.4490     3.5650 cc         1 BJE       0.649500
      6 N3           1.6680    -0.2210     4.8590 nd         1 BJE      -0.590100
      7 C4           2.2490    -1.0670     5.7200 c          1 BJE       0.709700
      8 O4           2.2260    -0.8400     6.9200 o          1 BJE      -0.587100
      9 C5           2.8910    -2.2300     5.2240 cc         1 BJE      -0.286200
     10 C6           2.8710    -2.4660     3.8960 cd         1 BJE      -0.022000
     11 N1           2.2390    -1.5970     3.0560 na         1 BJE      -0.215400
     12 C1'          1.9710    -1.5620     1.6570 c3         1 BJE       0.281300
     13 O4'          2.6350    -2.0300     0.5370 os         1 BJE      -0.354600
     14 C4'          1.9810    -1.3400    -0.5730 c3         1 BJE       0.153100
     15 C5'          2.9940    -1.0560    -1.6850 c3         1 BJE       0.221400
     16 O5'          3.4060    -2.2880    -2.2800 oh         1 BJE      -0.578800
     17 H1          -0.3140     0.7450    -0.4850 ho         1 BJE       0.403000
     18 H2           1.8200     0.8430    -0.5570 h1         1 BJE       0.021700
     19 H3           2.9660     0.4160     1.4940 h1         1 BJE       0.059700
     20 H4           3.3680    -2.9280     5.9010 ha         1 BJE       0.144000
     21 H5           3.3560    -3.3490     3.4970 h4         1 BJE       0.134000
     22 H6           0.9490    -1.9030     1.5500 h2         1 BJE       0.042700
     23 H7           1.1650    -1.9420    -0.9530 h1         1 BJE       0.057700
     24 H8           3.8560    -0.5510    -1.2670 h1         1 BJE      -0.004800
     25 H9           2.5360    -0.4260    -2.4380 h1         1 BJE      -0.004800
     26 H10          3.9960    -2.1110    -2.9930 ho         1 BJE       0.396000
@<TRIPOS>BOND
     1     1     2 1   
     2     1    17 1   
     3     2     3 1   
     4     2    14 1   
     5     2    18 1   
     6     3     4 1   
     7     3    12 1   
     8     3    19 1   
     9     4     5 1   
    10     5     6 2   
    11     5    11 1   
    12     6     7 1   
    13     7     8 2   
    14     7     9 1   
    15     9    10 2   
    16     9    20 1   
    17    10    11 1   
    18    10    21 1   
    19    11    12 1   
    20    12    13 1   
    21    12    22 1   
    22    13    14 1   
    23    14    15 1   
    24    14    23 1   
    25    15    16 1   
    26    15    24 1   
    27    15    25 1   
    28    16    26 1   
@<TRIPOS>SUBSTRUCTURE
     1 BJE         1 TEMP              0 ****  ****    0 ROOT
