@<TRIPOS>MOLECULE
molecule
   26    28     1     0     0
SMALL
bcc


@<TRIPOS>ATOM
      1 O3'          0.0000     0.0000     0.0000 oh         1 BJE      -0.576800
      2 C3'          1.4290     0.0000     0.0000 c3         1 BJE       0.130100
      3 C2'          1.9690     0.0000     1.4210 c3         1 BJE       0.049100
      4 O2           1.1410     0.3280     2.5540 os         1 BJE      -0.333400
      5 C2           1.6650    -0.4490     3.5650 cc         1 BJE       0.842500
      6 N3           1.6680    -0.2210     4.8590 nd         1 BJE      -0.697100
      7 C4           2.2490    -1.0670     5.7200 c          1 BJE       0.720700
      8 O4           2.2260    -0.8400     6.9200 o          1 BJE      -0.546100
      9 C5           2.8910    -2.2300     5.2240 cc         1 BJE      -0.323200
     10 C6           2.8710    -2.4660     3.8960 cd         1 BJE       0.109000
     11 N1           2.2390    -1.5970     3.0560 na         1 BJE      -0.641400
     12 C1'          1.9710    -1.5620     1.6570 c3         1 BJE       0.380300
     13 O4'          2.6350    -2.0300     0.5370 os         1 BJE      -0.371600
     14 C4'          1.9810    -1.3400    -0.5730 c3         1 BJE       0.132100
     15 C5'          2.9940    -1.0560    -1.6850 c3         1 BJE       0.143400
     16 O5'          3.4060    -2.2880    -2.2800 oh         1 BJE      -0.592800
     17 H1          -0.3140     0.7450    -0.4850 ho         1 BJE       0.419000
     18 H2           1.8200     0.8430    -0.5570 h1         1 BJE       0.063700
     19 H3           2.9660     0.4160     1.4940 h1         1 BJE       0.098700
     20 H4           3.3680    -2.9280     5.9010 ha         1 BJE       0.173000
     21 H5           3.3560    -3.3490     3.4970 h4         1 BJE       0.167000
     22 H6           0.9490    -1.9030     1.5500 h2         1 BJE       0.075700
     23 H7           1.1650    -1.9420    -0.9530 h1         1 BJE       0.099700
     24 H8           3.8560    -0.5510    -1.2670 h1         1 BJE       0.034700
     25 H9           2.5360    -0.4260    -2.4380 h1         1 BJE       0.034700
     26 H10          3.9960    -2.1110    -2.9930 ho         1 BJE       0.411000
@<TRIPOS>BOND
     1     8     7 2
     2     6     7 1
     3     6     5 2
     4     7     9 1
     5     4     5 1
     6     4     3 1
     7     5    11 1
     8     3     2 1
     9     3    12 1
    10     9    10 2
    11    11    10 1
    12    11    12 1
    13     2     1 1
    14     2    14 1
    15    16    15 1
    16    12    13 1
    17    15    14 1
    18    14    13 1
    19     1    17 1
    20     2    18 1
    21     3    19 1
    22     9    20 1
    23    10    21 1
    24    12    22 1
    25    14    23 1
    26    15    24 1
    27    15    25 1
    28    16    26 1
@<TRIPOS>SUBSTRUCTURE
     1 BJE         1 TEMP              0 ****  ****    0 ROOT
