@<TRIPOS>MOLECULE
molecule
   68    72     1     0     0
SMALL
bcc


@<TRIPOS>ATOM
      1 C8           0.0000     0.0000     0.0000 c3         1 BJG       0.164300
      2 C9           1.5310     0.0000     0.0000 c3         1 BJG       0.161300
      3 N10          2.0180     0.0000     1.3860 n3         1 BJG      -0.735600
      4 C35          3.4850    -0.0760     1.4280 c3         1 BJG       0.152100
      5 C11          1.5310     1.1800     2.1140 c3         1 BJG       0.161300
      6 C12         -0.0000     1.1790     2.1140 c3         1 BJG       0.164300
      7 N7          -0.4880     1.1800     0.7270 nh         1 BJG      -0.596000
      8 C16         -1.8840     1.2510     0.6880 ca         1 BJG       0.106600
      9 C17         -2.5440     2.2980     1.3180 ca         1 BJG      -0.151000
     10 C18         -3.9230     2.3690     1.2780 ca         1 BJG      -0.112500
     11 C15         -2.6110     0.2790     0.0120 ca         1 BJG      -0.151000
     12 C14         -3.9890     0.3510    -0.0290 ca         1 BJG      -0.112500
     13 C13         -4.6490     1.3950     0.6070 ca         1 BJG       0.104600
     14 N34         -6.0480     1.4670     0.5670 nu         1 BJG      -0.738300
     15 C23         -6.8010     0.3040     0.5520 ca         1 BJG       0.955900
     16 N24         -8.1140     0.3890     0.4090 nb         1 BJG      -0.817000
     17 N22         -6.1880    -0.8640     0.6750 nb         1 BJG      -0.764000
     18 C21         -6.8710    -1.9990     0.6650 ca         1 BJG       0.515200
     19 C20         -8.2440    -1.9600     0.5230 ca         1 BJG      -0.429600
     20 C19         -8.8660    -0.7120     0.3890 ca         1 BJG       0.559800
     21 C29        -10.3310    -0.6170     0.2310 cc         1 BJG      -0.117800
     22 N25        -11.0370     0.5380    -0.0100 na         1 BJG       0.013900
     23 C33        -10.4570     1.8760    -0.1510 c3         1 BJG       0.027600
     24 C28        -11.2030    -1.6580     0.2930 cd         1 BJG      -0.182000
     25 C27        -12.5020    -1.1360     0.0890 cd         1 BJG      -0.312600
     26 C30        -13.7600    -1.8980     0.0730 c          1 BJG       0.532700
     27 O31        -14.8160    -1.3250    -0.1140 o          1 BJG      -0.437100
     28 N32        -13.7420    -3.2320     0.2650 nz         1 BJG      -0.672400
     29 C26        -12.3610     0.2380    -0.0970 cc         1 BJG       0.099700
     30 C1         -13.4560     1.1980    -0.3460 ca         1 BJG      -0.079000
     31 C2         -13.8570     1.4780    -1.6540 ca         1 BJG      -0.088000
     32 C3         -14.8810     2.3760    -1.8800 ca         1 BJG       0.022400
     33 Cl1        -15.3830     2.7280    -3.5040 cl         1 BJG      -0.074400
     34 C4         -15.5090     2.9970    -0.8130 ca         1 BJG      -0.085000
     35 C5         -15.1140     2.7230     0.4840 ca         1 BJG      -0.114000
     36 C6         -14.0960     1.8240     0.7240 ca         1 BJG      -0.048300
     37 C36        -13.6740     1.5230     2.1390 c3         1 BJG      -0.051800
     38 H81C        -0.3600    -0.8980     0.4870 h1         1 BJG       0.049450
     39 H82C        -0.3600     0.0320    -1.0210 h1         1 BJG       0.049450
     40 H91C         1.8910    -0.8860    -0.5080 h1         1 BJG       0.045950
     41 H92C         1.8910     0.8860    -0.5080 h1         1 BJG       0.045950
     42 H351         3.8150    -0.9720     0.9150 h1         1 BJG       0.035700
     43 H352         3.9060     0.7950     0.9410 h1         1 BJG       0.035700
     44 H353         3.8160    -0.1090     2.4590 h1         1 BJG       0.035700
     45 H111         1.8900     2.0780     1.6260 h1         1 BJG       0.045950
     46 H112         1.8910     1.1480     3.1350 h1         1 BJG       0.045950
     47 H121        -0.3600     0.2920     2.6210 h1         1 BJG       0.049450
     48 H122        -0.3610     2.0640     2.6230 h1         1 BJG       0.049450
     49 H17         -1.9780     3.0590     1.8420 ha         1 BJG       0.145500
     50 H15         -2.0960    -0.5350    -0.4840 ha         1 BJG       0.145500
     51 H18         -4.4380     3.1850     1.7720 ha         1 BJG       0.141000
     52 H14         -4.5560    -0.4080    -0.5540 ha         1 BJG       0.141000
     53 H34         -6.5020     2.3570     0.5120 hn         1 BJG       0.465800
     54 H21         -6.3780    -2.9300     0.9200 h4         1 BJG       0.043100
     55 H20         -8.8370    -2.8400     0.7460 ha         1 BJG       0.137000
     56 H28        -10.9400    -2.7080     0.3410 ha         1 BJG       0.147000
     57 H331        -9.7130     1.8660    -0.9390 h1         1 BJG       0.080033
     58 H332        -9.9900     2.1670     0.7820 h1         1 BJG       0.080033
     59 H333       -11.2380     2.5840    -0.4000 h1         1 BJG       0.080033
     60 H321       -13.2100    -3.6670    -0.4630 hn         1 BJG       0.472800
     61 H322       -14.6780    -3.5840     0.2510 hn         1 BJG       0.472800
     62 H2         -13.3150     1.0530    -2.4910 ha         1 BJG       0.151000
     63 H4         -16.3100     3.7030    -0.9950 ha         1 BJG       0.161000
     64 H5         -15.6110     3.2110     1.3140 ha         1 BJG       0.155000
     65 H361       -14.3200     2.0510     2.8290 hc         1 BJG       0.050367
     66 H362       -12.6490     1.8430     2.2860 hc         1 BJG       0.050367
     67 H363       -13.7480     0.4570     2.3190 hc         1 BJG       0.050367
     68 H323       -13.3260    -3.4360     1.1520 hn         1 BJG       0.472800
@<TRIPOS>BOND
     1     1     2 1
     2     1     7 1
     3     2     3 1
     4     3     4 1
     5     3     5 1
     6     5     6 1
     7     6     7 1
     8     7     8 1
     9     8     9 ar
    10     8    11 ar
    11     9    10 ar
    12    10    13 ar
    13    11    12 ar
    14    12    13 ar
    15    13    14 1
    16    14    15 1
    17    15    16 ar
    18    15    17 ar
    19    16    20 ar
    20    17    18 ar
    21    18    19 ar
    22    19    20 ar
    23    20    21 1
    24    21    22 1
    25    21    24 2
    26    22    23 1
    27    22    29 1
    28    24    25 1
    29    25    26 1
    30    25    29 2
    31    26    27 2
    32    26    28 1
    33    29    30 1
    34    30    31 ar
    35    30    36 ar
    36    31    32 ar
    37    32    33 1
    38    32    34 ar
    39    34    35 ar
    40    35    36 ar
    41    36    37 1
    42     1    38 1
    43     1    39 1
    44     2    40 1
    45     2    41 1
    46     4    42 1
    47     4    43 1
    48     4    44 1
    49     5    45 1
    50     5    46 1
    51     6    47 1
    52     6    48 1
    53     9    49 1
    54    11    50 1
    55    10    51 1
    56    12    52 1
    57    14    53 1
    58    18    54 1
    59    19    55 1
    60    24    56 1
    61    23    57 1
    62    23    58 1
    63    23    59 1
    64    28    60 1
    65    28    61 1
    66    31    62 1
    67    34    63 1
    68    35    64 1
    69    37    65 1
    70    37    66 1
    71    37    67 1
    72    68    28 1
@<TRIPOS>SUBSTRUCTURE
     1 BJG         1 TEMP              0 ****  ****    0 ROOT
