@<TRIPOS>MOLECULE
BJG
   68    72     1     0     0
SMALL
bcc


@<TRIPOS>ATOM
      1 C8           0.0000     0.0000     0.0000 c3         1 BJG       0.135800
      2 C9           1.5310     0.0000     0.0000 c3         1 BJG       0.153800
      3 N10          2.0180     0.0000     1.3860 n3         1 BJG      -0.550600
      4 C35          3.4850    -0.0760     1.4280 c3         1 BJG       0.189100
      5 C11          1.5310     1.1800     2.1140 c3         1 BJG       0.153800
      6 C12         -0.0000     1.1790     2.1140 c3         1 BJG       0.135800
      7 N7          -0.4880     1.1800     0.7270 nh         1 BJG      -0.360000
      8 C16         -1.8840     1.2510     0.6880 ca         1 BJG       0.031600
      9 C17         -2.5440     2.2980     1.3180 ca         1 BJG      -0.130500
     10 C18         -3.9230     2.3690     1.2780 ca         1 BJG      -0.080000
     11 C15         -2.6110     0.2790     0.0120 ca         1 BJG      -0.130500
     12 C14         -3.9890     0.3510    -0.0290 ca         1 BJG      -0.080000
     13 C13         -4.6490     1.3950     0.6070 ca         1 BJG      -0.064400
     14 N34         -6.0480     1.4670     0.5670 nu         1 BJG      -0.252300
     15 C23         -6.8010     0.3040     0.5520 ca         1 BJG       0.717900
     16 N24         -8.1140     0.3890     0.4090 nb         1 BJG      -0.725000
     17 N22         -6.1880    -0.8640     0.6750 nb         1 BJG      -0.667000
     18 C21         -6.8710    -1.9990     0.6650 ca         1 BJG       0.511200
     19 C20         -8.2440    -1.9600     0.5230 ca         1 BJG      -0.414600
     20 C19         -8.8660    -0.7120     0.3890 ca         1 BJG       0.531800
     21 C29        -10.3310    -0.6170     0.2310 cc         1 BJG      -0.311800
     22 N25        -11.0370     0.5380    -0.0100 na         1 BJG       0.539900
     23 C33        -10.4570     1.8760    -0.1510 c3         1 BJG      -0.049400
     24 C28        -11.2030    -1.6580     0.2930 cd         1 BJG      -0.144000
     25 C27        -12.5020    -1.1360     0.0890 cd         1 BJG      -0.334600
     26 C30        -13.7600    -1.8980     0.0730 c          1 BJG       0.388700
     27 O31        -14.8160    -1.3250    -0.1140 o          1 BJG      -0.455100
     28 N32        -13.7420    -3.2320     0.2650 nz         1 BJG       0.207600
     29 C26        -12.3610     0.2380    -0.0970 cc         1 BJG      -0.085300
     30 C1         -13.4560     1.1980    -0.3460 ca         1 BJG      -0.066000
     31 C2         -13.8570     1.4780    -1.6540 ca         1 BJG      -0.070000
     32 C3         -14.8810     2.3760    -1.8800 ca         1 BJG      -0.046600
     33 Cl1        -15.3830     2.7280    -3.5040 cl         1 BJG       0.012600
     34 C4         -15.5090     2.9970    -0.8130 ca         1 BJG      -0.061000
     35 C5         -15.1140     2.7230     0.4840 ca         1 BJG      -0.082000
     36 C6         -14.0960     1.8240     0.7240 ca         1 BJG      -0.061300
     37 C36        -13.6740     1.5230     2.1390 c3         1 BJG       0.061200
     38 H81C        -0.3600    -0.8980     0.4870 h1         1 BJG       0.023950
     39 H82C        -0.3600     0.0320    -1.0210 h1         1 BJG       0.023950
     40 H91C         1.8910    -0.8860    -0.5080 h1         1 BJG       0.017700
     41 H92C         1.8910     0.8860    -0.5080 h1         1 BJG       0.017700
     42 H351         3.8150    -0.9720     0.9150 h1         1 BJG       0.003033
     43 H352         3.9060     0.7950     0.9410 h1         1 BJG       0.003033
     44 H353         3.8160    -0.1090     2.4590 h1         1 BJG       0.003033
     45 H111         1.8900     2.0780     1.6260 h1         1 BJG       0.017700
     46 H112         1.8910     1.1480     3.1350 h1         1 BJG       0.017700
     47 H121        -0.3600     0.2920     2.6210 h1         1 BJG       0.023950
     48 H122        -0.3610     2.0640     2.6230 h1         1 BJG       0.023950
     49 H17         -1.9780     3.0590     1.8420 ha         1 BJG       0.124000
     50 H15         -2.0960    -0.5350    -0.4840 ha         1 BJG       0.124000
     51 H18         -4.4380     3.1850     1.7720 ha         1 BJG       0.116000
     52 H14         -4.5560    -0.4080    -0.5540 ha         1 BJG       0.116000
     53 H34         -6.5020     2.3570     0.5120 hn         1 BJG       0.289800
     54 H21         -6.3780    -2.9300     0.9200 h4         1 BJG      -0.008900
     55 H20         -8.8370    -2.8400     0.7460 ha         1 BJG       0.120000
     56 H28        -10.9400    -2.7080     0.3410 ha         1 BJG       0.124000
     57 H331        -9.7130     1.8660    -0.9390 h1         1 BJG       0.050367
     58 H332        -9.9900     2.1670     0.7820 h1         1 BJG       0.050367
     59 H333       -11.2380     2.5840    -0.4000 h1         1 BJG       0.050367
     60 H321       -13.2100    -3.6670    -0.4630 hn         1 BJG       0.240800
     61 H322       -14.6780    -3.5840     0.2510 hn         1 BJG       0.240800
     62 H2         -13.3150     1.0530    -2.4910 ha         1 BJG       0.117000
     63 H4         -16.3100     3.7030    -0.9950 ha         1 BJG       0.126000
     64 H5         -15.6110     3.2110     1.3140 ha         1 BJG       0.122000
     65 H361       -14.3200     2.0510     2.8290 hc         1 BJG       0.011367
     66 H362       -12.6490     1.8430     2.2860 hc         1 BJG       0.011367
     67 H363       -13.7480     0.4570     2.3190 hc         1 BJG       0.011367
     68 H323       -13.3260    -3.4360     1.1520 hn         1 BJG       0.240800
@<TRIPOS>BOND
     1     1     2 1   
     2     1     7 1   
     3     1    38 1   
     4     1    39 1   
     5     2     3 1   
     6     2    40 1   
     7     2    41 1   
     8     3     4 1   
     9     3     5 1   
    10     4    42 1   
    11     4    43 1   
    12     4    44 1   
    13     5     6 1   
    14     5    45 1   
    15     5    46 1   
    16     6     7 1   
    17     6    47 1   
    18     6    48 1   
    19     7     8 1   
    20     8     9 ar  
    21     8    11 ar  
    22     9    10 ar  
    23     9    49 1   
    24    10    13 ar  
    25    10    51 1   
    26    11    12 ar  
    27    11    50 1   
    28    12    13 ar  
    29    12    52 1   
    30    13    14 1   
    31    14    15 1   
    32    14    53 1   
    33    15    16 ar  
    34    15    17 ar  
    35    16    20 ar  
    36    17    18 ar  
    37    18    19 ar  
    38    18    54 1   
    39    19    20 ar  
    40    19    55 1   
    41    20    21 1   
    42    21    22 1   
    43    21    24 2   
    44    22    23 1   
    45    22    29 1   
    46    23    57 1   
    47    23    58 1   
    48    23    59 1   
    49    24    25 1   
    50    24    56 1   
    51    25    26 1   
    52    25    29 2   
    53    26    27 2   
    54    26    28 1   
    55    28    60 1   
    56    28    61 1   
    57    28    68 1   
    58    29    30 1   
    59    30    31 ar  
    60    30    36 ar  
    61    31    32 ar  
    62    31    62 1   
    63    32    33 1   
    64    32    34 ar  
    65    34    35 ar  
    66    34    63 1   
    67    35    36 ar  
    68    35    64 1   
    69    36    37 1   
    70    37    65 1   
    71    37    66 1   
    72    37    67 1   
@<TRIPOS>SUBSTRUCTURE
     1 BJG         1 TEMP              0 ****  ****    0 ROOT
