@<TRIPOS>MOLECULE
BJK
   23    23     1     0     0
SMALL
bcc


@<TRIPOS>ATOM
      1 C4           0.0000     0.0000     0.0000 ca         1 BJK      -0.248300
      2 C5           1.3830     0.0000     0.0000 ca         1 BJK      -0.033000
      3 C6          -0.7520    -0.0010    -1.3060 c3         1 BJK       0.047100
      4 C7           3.4960     0.0210     3.4970 c3         1 BJK       0.239700
      5 O           -0.6860    -0.0080     3.5740 oh         1 BJK      -0.463100
      6 C2          -0.0040    -0.0090     2.3980 ca         1 BJK       0.112100
      7 C1           1.3880     0.0020     2.3970 ca         1 BJK       0.185100
      8 O1           2.0690     0.0120     3.5740 os         1 BJK      -0.270900
      9 C3          -0.6950    -0.0040     1.1960 ca         1 BJK      -0.086000
     10 C            2.0770     0.0000     1.1950 ca         1 BJK      -0.186000
     11 N           -0.9970    -1.3860    -1.7290 nz         1 BJK       0.070400
     12 H1           1.9230    -0.0010    -0.9390 ha         1 BJK       0.107000
     13 H3          -1.6990     0.5100    -1.1780 hx         1 BJK       0.081200
     14 H2          -0.1660     0.5080    -2.0610 hx         1 BJK       0.081200
     15 H6           3.8350    -0.8650     2.9740 h1         1 BJK       0.009033
     16 H4           3.9110     0.0310     4.4980 h1         1 BJK       0.009033
     17 H5           3.8230     0.9040     2.9610 h1         1 BJK       0.009033
     18 H7          -1.0100    -0.8750     3.7500 ho         1 BJK       0.410000
     19 H8          -1.7780    -0.0040     1.1930 ha         1 BJK       0.118000
     20 H9           3.1610     0.0040     1.1930 ha         1 BJK       0.144000
     21 H10         -1.5960    -1.8370    -1.0660 hn         1 BJK       0.221800
     22 H11         -0.1270    -1.8780    -1.7810 hn         1 BJK       0.221800
     23 H12         -1.4350    -1.3880    -2.6290 hn         1 BJK       0.221800
@<TRIPOS>BOND
     1     1     2 ar  
     2     1     3 1   
     3     1     9 ar  
     4     2    10 ar  
     5     2    12 1   
     6     3    11 1   
     7     3    13 1   
     8     3    14 1   
     9     4     8 1   
    10     4    15 1   
    11     4    16 1   
    12     4    17 1   
    13     5     6 1   
    14     5    18 1   
    15     6     7 ar  
    16     6     9 ar  
    17     7     8 1   
    18     7    10 ar  
    19     9    19 1   
    20    10    20 1   
    21    11    21 1   
    22    11    22 1   
    23    11    23 1   
@<TRIPOS>SUBSTRUCTURE
     1 BJK         1 TEMP              0 ****  ****    0 ROOT
