@<TRIPOS>MOLECULE
BJM
   51    55     1     0     0
SMALL
bcc


@<TRIPOS>ATOM
      1 C1           0.0000     0.0000     0.0000 c3         1 BJM      -0.055000
      2 C2          -0.5090     0.0000    -1.4430 c3         1 BJM      -0.214500
      3 C3           1.5300     0.0000     0.0000 c3         1 BJM      -0.029400
      4 C8           2.0400     0.0000     1.4430 c3         1 BJM       0.185800
      5 C9          -0.0000     1.2500     2.1630 c3         1 BJM      -0.027200
      6 C10         -0.0010    -1.2490     2.1640 c3         1 BJM      -0.027200
      7 C13          1.5300     1.2490     2.1640 c3         1 BJM      -0.057400
      8 C14          1.5290    -1.2490     2.1640 c3         1 BJM      -0.057400
      9 C16         -0.5120     0.0000     2.8850 c3         1 BJM      -0.021400
     10 C19         -4.2630    -3.0500    -1.7660 cx         1 BJM      -0.121700
     11 C20         -4.8690    -1.8520    -2.4990 cx         1 BJM       0.023600
     12 C21         -2.8680    -3.5470    -2.2100 c3         1 BJM       0.018600
     13 C22         -0.5600    -2.5720    -2.0370 c2         1 BJM       0.348200
     14 N23          0.4890    -2.9810    -1.4300 n2         1 BJM      -0.588100
     15 C4          -0.5100     1.2500     0.7210 c3         1 BJM      -0.053400
     16 C5          -0.5100    -1.2490     0.7210 c3         1 BJM      -0.053400
     17 C6          -2.0110    -0.1280    -1.4450 c          1 BJM       0.593100
     18 N7          -0.1240     1.2580    -2.0980 nz         1 BJM       0.077400
     19 N11         -2.5830    -1.3440    -1.3420 n          1 BJM      -0.051800
     20 O12         -2.7040     0.8630    -1.5400 o          1 BJM      -0.633100
     21 O15          3.4690    -0.0010     1.4430 oh         1 BJM      -0.579800
     22 C17         -4.0210    -1.6400    -1.1950 cx         1 BJM      -0.103300
     23 C18         -1.9060    -2.6720    -1.3660 c3         1 BJM      -0.097600
     24 H1          -0.0740    -0.8340    -1.9800 hx         1 BJM       0.140700
     25 H2           1.8910    -0.8840    -0.5110 hc         1 BJM       0.028700
     26 H3           1.8910     0.8850    -0.5110 hc         1 BJM       0.028700
     27 H4          -0.3610     2.1350     2.6740 hc         1 BJM       0.046200
     28 H5          -0.3620    -2.1340     2.6750 hc         1 BJM       0.046200
     29 H6           1.8910     2.1330     1.6540 hc         1 BJM       0.035450
     30 H7           1.8900     1.2490     3.1860 hc         1 BJM       0.035450
     31 H8           1.8900    -1.2500     3.1860 hc         1 BJM       0.035450
     32 H9           1.8900    -2.1340     1.6530 hc         1 BJM       0.035450
     33 H10         -0.1520     0.0010     3.9070 hc         1 BJM       0.032200
     34 H11         -1.5950     0.0010     2.8840 hc         1 BJM       0.032200
     35 H14         -5.9400    -1.7280    -2.3860 hc         1 BJM       0.056200
     36 H15         -2.7180    -3.3690    -3.2670 hc         1 BJM       0.041200
     37 H16         -2.7420    -4.5960    -1.9680 hc         1 BJM       0.041200
     38 H17         -0.4800    -2.1460    -3.0300 h4         1 BJM      -0.004200
     39 H19          0.4160    -3.3670    -0.5090 hn         1 BJM       0.349400
     40 H22         -1.5930     1.2510     0.7210 hc         1 BJM       0.031950
     41 H23         -0.1480     2.1340     0.2110 hc         1 BJM       0.031950
     42 H24         -0.1490    -2.1340     0.2110 hc         1 BJM       0.031950
     43 H25         -1.5930    -1.2490     0.7210 hc         1 BJM       0.031950
     44 H26         -0.3740     1.2200    -3.0660 hn         1 BJM       0.233467
     45 H27          0.8640     1.3900    -2.0130 hn         1 BJM       0.233467
     46 H29          3.7830    -0.0190     2.3320 ho         1 BJM       0.411000
     47 H30         -4.5300    -1.4760    -0.2530 h1         1 BJM       0.095700
     48 H31         -1.8120    -3.0690    -0.3620 h1         1 BJM       0.064700
     49 H12         -4.8900    -3.6550    -1.1220 hc         1 BJM       0.084700
     50 H73         -0.5930     2.0230    -1.6530 hn         1 BJM       0.233467
     51 H13         -4.3820    -1.5740    -3.4250 hc         1 BJM       0.056200
@<TRIPOS>BOND
     1     1     2 1   
     2     1     3 1   
     3     1    15 1   
     4     1    16 1   
     5     2    17 1   
     6     2    18 1   
     7     2    24 1   
     8     3     4 1   
     9     3    25 1   
    10     3    26 1   
    11     4     7 1   
    12     4     8 1   
    13     4    21 1   
    14     5     7 1   
    15     5     9 1   
    16     5    15 1   
    17     5    27 1   
    18     6     8 1   
    19     6     9 1   
    20     6    16 1   
    21     6    28 1   
    22     7    29 1   
    23     7    30 1   
    24     8    31 1   
    25     8    32 1   
    26     9    33 1   
    27     9    34 1   
    28    10    11 1   
    29    10    12 1   
    30    10    22 1   
    31    10    49 1   
    32    11    22 1   
    33    11    35 1   
    34    11    51 1   
    35    12    23 1   
    36    12    36 1   
    37    12    37 1   
    38    13    14 2   
    39    13    23 1   
    40    13    38 1   
    41    14    39 1   
    42    15    40 1   
    43    15    41 1   
    44    16    42 1   
    45    16    43 1   
    46    17    19 1   
    47    17    20 2   
    48    18    44 1   
    49    18    45 1   
    50    18    50 1   
    51    19    22 1   
    52    19    23 1   
    53    21    46 1   
    54    22    47 1   
    55    23    48 1   
@<TRIPOS>SUBSTRUCTURE
     1 BJM         1 TEMP              0 ****  ****    0 ROOT
