@<TRIPOS>MOLECULE
molecule
   27    27     1     0     0
SMALL
bcc


@<TRIPOS>ATOM
      1 N            0.0000     0.0000     0.0000 nz         1 BJQ      -0.798600
      2 CA           1.4690     0.0000     0.0000 c3         1 BJQ       0.058500
      3 C            1.9720     0.0000     1.4200 c          1 BJQ       0.619100
      4 CB           1.9800     1.2500    -0.7210 c3         1 BJQ      -0.043100
      5 CG           1.5790     1.1900    -2.1730 ca         1 BJQ      -0.160300
      6 CD1          0.3740     1.7280    -2.5820 ca         1 BJQ      -0.131500
      7 CD2          2.4230     0.6010    -3.0970 ca         1 BJQ      -0.131500
      8 CE1          0.0080     1.6730    -3.9130 ca         1 BJQ      -0.106500
      9 CE2          2.0560     0.5460    -4.4300 ca         1 BJQ      -0.106500
     10 CZ           0.8480     1.0790    -4.8370 ca         1 BJQ      -0.094000
     11 O            1.2460     0.3570     2.3180 o          1 BJQ      -0.532000
     12 CM           3.6420    -0.3720     3.0790 c3         1 BJQ       0.137700
     13 OXT          3.2250    -0.3970     1.6890 os         1 BJQ      -0.394900
     14 HN2         -0.3340    -0.2610    -0.9070 hn         1 BJQ       0.465800
     15 H3          -0.3340    -0.6540     0.6800 hn         1 BJQ       0.465800
     16 HN1         -0.3340     0.9160     0.2260 hn         1 BJQ       0.465800
     17 HA           1.8300    -0.8840    -0.5110 hx         1 BJQ       0.139700
     18 HBC2         1.5490     2.1320    -0.2630 hc         1 BJQ       0.098700
     19 HBC1         3.0590     1.2940    -0.6450 hc         1 BJQ       0.098700
     20 HD1         -0.2840     2.1930    -1.8580 ha         1 BJQ       0.130000
     21 HD2          3.3700     0.1830    -2.7780 ha         1 BJQ       0.130000
     22 HE1         -0.9380     2.0930    -4.2330 ha         1 BJQ       0.155500
     23 HE2          2.7160     0.0830    -5.1540 ha         1 BJQ       0.155500
     24 HZ           0.5610     1.0360    -5.8810 ha         1 BJQ       0.158000
     25 HMC3         3.0040    -1.0270     3.6600 h1         1 BJQ       0.072700
     26 HMC2         4.6690    -0.7090     3.1550 h1         1 BJQ       0.072700
     27 HMC1         3.5650     0.6390     3.4610 h1         1 BJQ       0.072700
@<TRIPOS>BOND
     1     1     2 1
     2    11     3 2
     3     2     3 1
     4     2     4 1
     5     3    13 1
     6     7     9 ar
     7     7     5 ar
     8     9    10 ar
     9     4     5 1
    10     5     6 ar
    11    13    12 1
    12    10     8 ar
    13     6     8 ar
    14     1    14 1
    15     1    15 1
    16     1    16 1
    17     2    17 1
    18     4    18 1
    19     4    19 1
    20     6    20 1
    21     7    21 1
    22     8    22 1
    23     9    23 1
    24    10    24 1
    25    12    25 1
    26    12    26 1
    27    12    27 1
@<TRIPOS>SUBSTRUCTURE
     1 BJQ         1 TEMP              0 ****  ****    0 ROOT
