@<TRIPOS>MOLECULE
BJS
   90    97     1     0     0
SMALL
bcc


@<TRIPOS>ATOM
      1 C34          0.0000     0.0000     0.0000 c3         1 BJS      -0.313000
      2 C30          2.0390     0.4620    -1.3680 c3         1 BJS      -0.057000
      3 C32          1.5300     0.0000     0.0000 c3         1 BJS      -0.136000
      4 N5           6.2690    -2.4200    -2.0680 n          1 BJS       0.094000
      5 C24          8.2190    -3.2660    -0.8240 c2         1 BJS       0.236000
      6 C20          6.9050    -3.4690    -1.5060 c2         1 BJS       0.182000
      7 C1           5.5890    -0.1670    -1.5880 c3         1 BJS      -0.078000
      8 C2           4.2950    -0.5700    -1.7170 c2         1 BJS      -0.282000
      9 C6           6.7770    -1.0470    -1.8940 c3         1 BJS      -0.344000
     10 C4           5.0560    -2.6190    -2.8740 c3         1 BJS      -0.252000
     11 C3           3.8700    -1.9420    -2.1750 c3         1 BJS       0.177000
     12 C15          5.5890     1.1600    -1.1340 c2         1 BJS      -0.029000
     13 C38         -0.1390     0.5280     2.3600 c3         1 BJS      -0.634000
     14 C39         -0.6130     0.0000     3.7170 c3         1 BJS      -0.264000
     15 C41         -2.3960    -1.1930     2.6510 c3         1 BJS      -0.762000
     16 C42         -1.9390    -0.6780     1.2840 c3         1 BJS      -0.149000
     17 C49         -2.2680    -1.7170     0.2100 c3         1 BJS      -0.122000
     18 C51          6.7880     1.9880    -0.8540 ca         1 BJS      -0.015000
     19 C53          6.7660     3.3540    -1.1140 ca         1 BJS      -0.037000
     20 C54          7.8970     4.1260    -0.8470 ca         1 BJS       0.123000
     21 C55          9.0430     3.5220    -0.3190 ca         1 BJS      -0.110000
     22 C56          9.0550     2.1650    -0.0630 ca         1 BJS      -0.094000
     23 C57          7.9340     1.3990    -0.3210 ca         1 BJS      -0.126000
     24 C66          7.8850     5.5340    -1.1130 c1         1 BJS      -0.195000
     25 C68          7.8610     6.6900    -1.3160 c1         1 BJS       0.042000
     26 C70          7.5450     7.8800    -1.6180 ca         1 BJS       0.002000
     27 C72          6.9550     8.4940    -2.7620 ca         1 BJS      -0.054000
     28 C73          6.5420     9.6290    -3.3080 ca         1 BJS      -0.076000
     29 C74          6.8390    10.5660    -2.2850 ca         1 BJS      -0.026000
     30 C75          7.5120    10.2380    -0.8460 ca         1 BJS      -0.096000
     31 C76          7.7320     8.9880    -0.7870 ca         1 BJS      -0.084000
     32 C85          7.7240    11.4320     0.0570 c3         1 BJS      -0.011000
     33 C89          7.5950    13.6370     0.1770 c3         1 BJS      -0.082000
     34 C91          6.6610    14.6910     1.2190 ca         1 BJS      -0.056000
     35 C93          6.1700    16.0430     0.4960 ca         1 BJS      -0.108000
     36 C94          5.5320    16.8420     1.0850 ca         1 BJS      -0.114500
     37 C95          5.2560    16.3770     2.6310 ca         1 BJS      -0.080000
     38 C96          5.6890    15.3170     3.0600 ca         1 BJS      -0.114500
     39 C97          6.4560    14.3340     2.3890 ca         1 BJS      -0.108000
     40 N13          3.5040     0.4620    -1.3680 n3         1 BJS       0.337000
     41 N14          4.3330     1.5390    -1.0020 n2         1 BJS      -0.146000
     42 N28          8.1150    -2.7510     0.7850 nz         1 BJS      -0.016000
     43 N36         -0.4890    -0.4430     1.3130 n3         1 BJS       0.737000
     44 N87          6.7920    12.3090    -0.0330 n7         1 BJS      -0.027000
     45 O22          6.4090    -4.5750    -1.5550 o          1 BJS      -0.291000
     46 O26          8.8780    -3.9040    -1.4790 o          1 BJS      -0.034000
     47 O40         -2.0200    -0.2510     3.6600 os         1 BJS       0.987000
     48 Cl3          7.0020    12.5040    -2.3580 cl         1 BJS       0.011000
     49 Cl4         10.4550     4.4770     0.0080 cl         1 BJS       0.115000
     50 H1          -0.3610     0.7770    -0.6630 h1         1 BJS       0.120000
     51 H2          -0.3610    -0.9630    -0.3410 h1         1 BJS       0.120000
     52 H3           1.4780     1.3310    -1.6870 h1         1 BJS       0.087500
     53 H4           1.9100    -0.3360    -2.0890 h1         1 BJS       0.087500
     54 H5           1.8910    -0.9730    -0.3120 hc         1 BJS       0.073000
     55 H6           1.8910     0.2160     0.9980 hc         1 BJS       0.073000
     56 H7           6.1990    -0.5840    -1.1030 DU         1 BJS       0.181000
     57 H8           7.8050    -1.1200    -1.5600 h1         1 BJS       0.127000
     58 H9           4.2390    -2.1260    -2.3610 h1         1 BJS       0.064500
     59 H10          4.9200    -3.6860    -3.0010 h1         1 BJS       0.064500
     60 H11          3.4050    -1.8120    -3.1450 hc         1 BJS       0.095000
     61 H12          3.1910    -2.3210    -1.4210 hc         1 BJS       0.095000
     62 H13          0.9030     0.8120     2.4410 h1         1 BJS       0.093500
     63 H14         -0.2360    -0.2620     1.6250 h1         1 BJS       0.093500
     64 H15         -0.2630     0.6700     4.4930 h1         1 BJS      -0.061500
     65 H16         -1.6960    -0.0170     3.7250 h1         1 BJS      -0.061500
     66 H17         -2.2620    -0.4050     3.3830 h1         1 BJS      -0.025500
     67 H18         -3.4470    -1.4500     2.5930 h1         1 BJS      -0.025500
     68 H19         -2.4490     0.2520     1.0610 h1         1 BJS       0.097000
     69 H20         -1.5920    -1.5960    -0.6290 hc         1 BJS       0.057667
     70 H21         -2.1550    -2.7120     0.6230 hc         1 BJS       0.057667
     71 H22         -3.2880    -1.5800    -0.1260 hc         1 BJS       0.057667
     72 H23          5.8550     3.8240    -1.4630 ha         1 BJS       0.137000
     73 H24          9.9450     1.6970     0.3390 ha         1 BJS       0.109000
     74 H25          7.9510     0.3350    -0.1160 ha         1 BJS       0.032000
     75 H26          6.4540     7.7110    -3.3200 ha         1 BJS       0.048000
     76 H27          6.0840     9.7950    -4.2750 ha         1 BJS       0.157000
     77 H28          7.8510     8.6950     0.2500 ha         1 BJS       0.073000
     78 H29          8.6660    11.8990    -0.2020 h1         1 BJS       0.049500
     79 H30          7.7770    11.0860     1.0820 h1         1 BJS       0.049500
     80 H31          8.5490    13.4180     0.6410 h1         1 BJS       0.063500
     81 H32          7.7570    14.1200    -0.7790 h1         1 BJS       0.063500
     82 H33          6.5590    16.3010    -0.4810 ha         1 BJS       0.119000
     83 H34          5.2540    17.7960     0.6520 ha         1 BJS       0.106500
     84 H35          4.6800    17.0390     3.2650 ha         1 BJS       0.102000
     85 H36          5.2140    14.9130     3.9450 ha         1 BJS       0.106500
     86 H37          7.2550    13.8870     2.9670 ha         1 BJS       0.119000
     87 H38          8.2080    -1.7550     0.8240 DU         1 BJS       0.237000
     88 H39          8.8470    -3.1760     1.3200 hn         1 BJS       0.139000
     89 H41          6.1450    12.1870     0.7210 hn         1 BJS       0.060000
     90 H283         7.8650    -1.7820     0.8100 DU         1 BJS       0.237000
@<TRIPOS>BOND
     1     1     3 1   
     2     1    43 1   
     3     1    50 1   
     4     1    51 1   
     5     2     3 1   
     6     2    40 1   
     7     2    52 1   
     8     2    53 1   
     9     3    54 1   
    10     3    55 1   
    11     4     6 1   
    12     4     9 1   
    13     4    10 1   
    14     5     6 1   
    15     5    42 1   
    16     5    46 1   
    17     6    45 1   
    18     7     8 1   
    19     7     9 1   
    20     7    12 1   
    21     7    56 1   
    22     8    11 1   
    23     8    40 1   
    24     9    56 1   
    25     9    57 1   
    26    10    11 1   
    27    10    58 1   
    28    10    59 1   
    29    11    60 1   
    30    11    61 1   
    31    12    18 1   
    32    12    41 1   
    33    13    14 1   
    34    13    43 1   
    35    13    62 1   
    36    13    63 1   
    37    14    47 1   
    38    14    64 1   
    39    14    65 1   
    40    15    16 1   
    41    15    47 1   
    42    15    66 1   
    43    15    67 1   
    44    16    17 1   
    45    16    43 1   
    46    16    68 1   
    47    17    69 1   
    48    17    70 1   
    49    17    71 1   
    50    18    19 1   
    51    18    23 1   
    52    19    20 1   
    53    19    72 1   
    54    20    21 1   
    55    20    24 1   
    56    21    22 1   
    57    21    49 1   
    58    22    23 1   
    59    22    73 1   
    60    23    74 1   
    61    24    25 1   
    62    25    26 1   
    63    26    27 1   
    64    26    31 1   
    65    27    28 1   
    66    27    75 1   
    67    28    29 1   
    68    28    76 1   
    69    29    30 1   
    70    29    48 1   
    71    30    31 1   
    72    30    32 1   
    73    31    77 1   
    74    32    44 1   
    75    32    78 1   
    76    32    79 1   
    77    33    34 1   
    78    33    44 1   
    79    33    80 1   
    80    33    81 1   
    81    34    35 1   
    82    34    39 1   
    83    35    36 1   
    84    35    82 1   
    85    36    37 1   
    86    36    83 1   
    87    37    38 1   
    88    37    84 1   
    89    38    39 1   
    90    38    85 1   
    91    39    86 1   
    92    40    41 1   
    93    42    87 1   
    94    42    88 1   
    95    42    90 1   
    96    44    89 1   
    97    87    90 1   
@<TRIPOS>SUBSTRUCTURE
     1 BJS         1 TEMP              0 ****  ****    0 ROOT
