@<TRIPOS>MOLECULE
molecule
   90    95     1     0     0
SMALL
bcc


@<TRIPOS>ATOM
      1 C34          0.0000     0.0000     0.0000 c3         1 BJS       0.071800
      2 C30          2.0390     0.4620    -1.3680 c3         1 BJS       0.093300
      3 C32          1.5300     0.0000     0.0000 c3         1 BJS      -0.120400
      4 N5           6.2690    -2.4200    -2.0680 n          1 BJS      -0.411800
      5 C24          8.2190    -3.2660    -0.8240 c          1 BJS       0.508100
      6 C20          6.9050    -3.4690    -1.5060 c          1 BJS       0.571100
      7 C1           5.5890    -0.1670    -1.5880 cc         1 BJS      -0.161600
      8 C2           4.2950    -0.5700    -1.7170 cd         1 BJS      -0.120600
      9 C6           6.7770    -1.0470    -1.8940 c3         1 BJS      -0.146700
     10 C4           5.0560    -2.6190    -2.8740 c3         1 BJS      -0.078000
     11 C3           3.8700    -1.9420    -2.1750 c3         1 BJS      -0.024100
     12 C15          5.5890     1.1600    -1.1340 cc         1 BJS       0.369800
     13 C38         -0.1390     0.5280     2.3600 c3         1 BJS      -0.357200
     14 C39         -0.6130     0.0000     3.7170 c3         1 BJS      -0.156600
     15 C41         -2.3960    -1.1930     2.6510 c3         1 BJS      -0.449600
     16 C42         -1.9390    -0.6780     1.2840 c3         1 BJS       0.197500
     17 C49         -2.2680    -1.7170     0.2100 c3         1 BJS      -0.087100
     18 C51          6.7880     1.9880    -0.8540 ca         1 BJS      -0.120500
     19 C53          6.7660     3.3540    -1.1140 ca         1 BJS      -0.057000
     20 C54          7.8970     4.1260    -0.8470 ca         1 BJS       0.085000
     21 C55          9.0430     3.5220    -0.3190 ca         1 BJS       0.052400
     22 C56          9.0550     2.1650    -0.0630 ca         1 BJS      -0.119000
     23 C57          7.9340     1.3990    -0.3210 ca         1 BJS      -0.139000
     24 C66          7.8850     5.5340    -1.1130 ch         1 BJS      -0.168000
     25 C68          7.8610     6.6900    -1.3160 cg         1 BJS       0.040000
     26 C70          7.5450     7.8800    -1.6180 ca         1 BJS      -0.030000
     27 C72          6.9550     8.4940    -2.7620 ca         1 BJS      -0.078000
     28 C73          6.5420     9.6290    -3.3080 ca         1 BJS      -0.110000
     29 C74          6.8390    10.5660    -2.2850 ca         1 BJS       0.127400
     30 C75          7.5120    10.2380    -0.8460 ca         1 BJS      -0.079300
     31 C76          7.7320     8.9880    -0.7870 ca         1 BJS      -0.102000
     32 C85          7.7240    11.4320     0.0570 c3         1 BJS       0.244100
     33 C89          7.5950    13.6370     0.1770 c3         1 BJS       0.171100
     34 C91          6.6610    14.6910     1.2190 ca         1 BJS      -0.070300
     35 C93          6.1700    16.0430     0.4960 ca         1 BJS      -0.128500
     36 C94          5.5320    16.8420     1.0850 ca         1 BJS      -0.136000
     37 C95          5.2560    16.3770     2.6310 ca         1 BJS      -0.116000
     38 C96          5.6890    15.3170     3.0600 ca         1 BJS      -0.136000
     39 C97          6.4560    14.3340     2.3890 ca         1 BJS      -0.128500
     40 N13          3.5040     0.4620    -1.3680 na         1 BJS       0.104400
     41 N14          4.3330     1.5390    -1.0020 nd         1 BJS      -0.436800
     42 N28          8.1150    -2.7510     0.7850 nz         1 BJS      -0.980400
     43 N36         -0.4890    -0.4430     1.3130 n3         1 BJS      -0.504600
     44 N87          6.7920    12.3090    -0.0330 n7         1 BJS      -0.767200
     45 O22          6.4090    -4.5750    -1.5550 o          1 BJS      -0.486100
     46 O26          8.8780    -3.9040    -1.4790 o          1 BJS      -0.278100
     47 O40         -2.0200    -0.2510     3.6600 os         1 BJS      -0.049600
     48 Cl3          7.0020    12.5040    -2.3580 cl         1 BJS      -0.173400
     49 Cl4         10.4550     4.4770     0.0080 cl         1 BJS      -0.052400
     50 H1          -0.3610     0.7770    -0.6630 h1         1 BJS       0.096200
     51 H2          -0.3610    -0.9630    -0.3410 h1         1 BJS       0.096200
     52 H3           1.4780     1.3310    -1.6870 h1         1 BJS       0.078200
     53 H4           1.9100    -0.3360    -2.0890 h1         1 BJS       0.078200
     54 H5           1.8910    -0.9730    -0.3120 hc         1 BJS       0.064700
     55 H6           1.8910     0.2160     0.9980 hc         1 BJS       0.064700
     56 H7           6.1990    -0.5840    -1.1030 h1         1 BJS       0.142200
     57 H8           7.8050    -1.1200    -1.5600 h1         1 BJS       0.142200
     58 H9           4.2390    -2.1260    -2.3610 h1         1 BJS       0.147700
     59 H10          4.9200    -3.6860    -3.0010 h1         1 BJS       0.147700
     60 H11          3.4050    -1.8120    -3.1450 hc         1 BJS       0.106200
     61 H12          3.1910    -2.3210    -1.4210 hc         1 BJS       0.106200
     62 H13          0.9030     0.8120     2.4410 h1         1 BJS       0.191700
     63 H14         -0.2360    -0.2620     1.6250 h1         1 BJS       0.191700
     64 H15         -0.2630     0.6700     4.4930 h1         1 BJS       0.138700
     65 H16         -1.6960    -0.0170     3.7250 h1         1 BJS       0.138700
     66 H17         -2.2620    -0.4050     3.3830 h1         1 BJS       0.150700
     67 H18         -3.4470    -1.4500     2.5930 h1         1 BJS       0.150700
     68 H19         -2.4490     0.2520     1.0610 h1         1 BJS       0.034700
     69 H20         -1.5920    -1.5960    -0.6290 hc         1 BJS       0.052700
     70 H21         -2.1550    -2.7120     0.6230 hc         1 BJS       0.052700
     71 H22         -3.2880    -1.5800    -0.1260 hc         1 BJS       0.052700
     72 H23          5.8550     3.8240    -1.4630 ha         1 BJS       0.173000
     73 H24          9.9450     1.6970     0.3390 ha         1 BJS       0.143000
     74 H25          7.9510     0.3350    -0.1160 ha         1 BJS       0.054000
     75 H26          6.4540     7.7110    -3.3200 ha         1 BJS       0.088000
     76 H27          6.0840     9.7950    -4.2750 ha         1 BJS       0.194000
     77 H28          7.8510     8.6950     0.2500 ha         1 BJS       0.106000
     78 H29          8.6660    11.8990    -0.2020 h1         1 BJS       0.032200
     79 H30          7.7770    11.0860     1.0820 h1         1 BJS       0.032200
     80 H31          8.5490    13.4180     0.6410 h1         1 BJS       0.056200
     81 H32          7.7570    14.1200    -0.7790 h1         1 BJS       0.056200
     82 H33          6.5590    16.3010    -0.4810 ha         1 BJS       0.141500
     83 H34          5.2540    17.7960     0.6520 ha         1 BJS       0.133500
     84 H35          4.6800    17.0390     3.2650 ha         1 BJS       0.132000
     85 H36          5.2140    14.9130     3.9450 ha         1 BJS       0.133500
     86 H37          7.2550    13.8870     2.9670 ha         1 BJS       0.141500
     87 H38          8.2080    -1.7550     0.8240 hn         1 BJS       0.508467
     88 H39          8.8470    -3.1760     1.3200 hn         1 BJS       0.508467
     89 H41          6.1450    12.1870     0.7210 hn         1 BJS       0.357800
     90 H283         7.8650    -1.7820     0.8100 hn         1 BJS       0.508467
@<TRIPOS>BOND
     1    36    35 ar
     2    36    37 ar
     3    35    34 ar
     4    37    38 ar
     5    34    33 1
     6    34    39 ar
     7    38    39 ar
     8    44    33 1
     9    44    32 1
    10    32    30 1
    11    30    31 ar
    12    30    29 ar
    13    31    26 ar
    14    48    29 1
    15    49    21 1
    16    29    28 ar
    17    26    25 1
    18    26    27 ar
    19    25    24 3
    20    28    27 ar
    21    21    22 ar
    22    21    20 ar
    23    24    20 1
    24    22    23 ar
    25    20    19 ar
    26    23    18 ar
    27    19    18 ar
    28    18    12 1
    29    14    13 1
    30    14    47 1
    31    12    41 2
    32    12     7 1
    33    13    43 1
    34    41    40 1
    35    42     5 1
    36    47    15 1
    37     9     7 1
    38     9     4 1
    39     7     8 2
    40    43     1 1
    41    43    16 1
    42     1     3 1
    43    40     8 1
    44    40     2 1
    45     5    46 2
    46     5     6 1
    47    15    16 1
    48     8    11 1
    49    16    17 1
    50     3     2 1
    51     4     6 1
    52     4    10 1
    53     6    45 2
    54    10    11 1
    55     1    50 1
    56     1    51 1
    57     2    52 1
    58     2    53 1
    59     3    54 1
    60     3    55 1
    61     9    56 1
    62     9    57 1
    63    10    58 1
    64    10    59 1
    65    11    60 1
    66    11    61 1
    67    13    62 1
    68    13    63 1
    69    14    64 1
    70    14    65 1
    71    15    66 1
    72    15    67 1
    73    16    68 1
    74    17    69 1
    75    17    70 1
    76    17    71 1
    77    19    72 1
    78    22    73 1
    79    23    74 1
    80    27    75 1
    81    28    76 1
    82    31    77 1
    83    32    78 1
    84    32    79 1
    85    33    80 1
    86    33    81 1
    87    35    82 1
    88    36    83 1
    89    37    84 1
    90    38    85 1
    91    39    86 1
    92    42    87 1
    93    42    88 1
    94    44    89 1
    95    90    42 1
@<TRIPOS>SUBSTRUCTURE
     1 BJS         1 TEMP              0 ****  ****    0 ROOT
