@<TRIPOS>MOLECULE
BJV
   90    95     1     0     0
SMALL
bcc


@<TRIPOS>ATOM
      1 C2           0.0000     0.0000     0.0000 c3         1 BJV       0.213400
      2 C6          -0.0190    -1.1620     2.0950 c3         1 BJV       0.213400
      3 C5           1.5120    -1.1730     2.1160 c3         1 BJV       0.104300
      4 C3           1.5310     0.0000     0.0000 c3         1 BJV       0.104300
      5 C15          3.9570     1.4070     0.8890 c3         1 BJV      -0.066400
      6 C22          6.5490     4.8770     0.3500 cc         1 BJV       0.440800
      7 C17          5.4850     1.4680     0.9370 c3         1 BJV      -0.013700
      8 C23          6.6000     4.3360    -0.9420 cc         1 BJV      -0.332600
      9 C24          6.2230     3.0360    -0.8700 cd         1 BJV      -0.230600
     10 C30          6.1520     2.1010    -2.0510 c3         1 BJV       0.052900
     11 C31          6.1240     2.9340    -3.3400 c3         1 BJV       0.243800
     12 C33          6.9910     5.0300    -2.2250 c3         1 BJV       0.323100
     13 C39          6.8850     6.2720     0.7290 ca         1 BJV      -0.111500
     14 C45          7.8640     4.9930    -5.7070 c3         1 BJV       0.012700
     15 C49          6.1830     6.9040     1.7490 ca         1 BJV      -0.056000
     16 C50          6.5030     8.2160     2.1000 ca         1 BJV       0.053000
     17 C51          7.5280     8.8850     1.4240 ca         1 BJV      -0.024600
     18 C52          8.2200     8.2480     0.4120 ca         1 BJV      -0.101000
     19 C53          7.9090     6.9480     0.0660 ca         1 BJV      -0.092000
     20 C62          5.7840     8.8740     3.1490 cg         1 BJV      -0.110000
     21 C64          5.2080     9.4070     4.0230 ch         1 BJV      -0.048000
     22 C66          4.6460    10.3950     4.6510 ca         1 BJV      -0.016000
     23 C68          4.4020    11.7600     4.4740 ca         1 BJV      -0.006000
     24 C69          3.6700    12.6570     5.4800 ca         1 BJV      -0.268000
     25 C70          3.3030    11.9140     6.5580 ca         1 BJV       0.240100
     26 C71          2.8930    10.6550     6.7130 ca         1 BJV      -0.105300
     27 C72          3.9930    10.0220     6.1130 ca         1 BJV      -0.085000
     28 C81          2.5080    14.1180     7.3630 c3         1 BJV       0.259700
     29 C83          2.2460     9.8060     7.7610 c3         1 BJV       0.235100
     30 C87         -0.0220     9.1670     8.8060 c3         1 BJV       0.203100
     31 C89         -1.3940     9.0950     8.1080 ca         1 BJV      -0.079300
     32 C91         -2.1300     9.9190     8.6600 ca         1 BJV      -0.101500
     33 C92         -3.6570    10.1040     8.1670 ca         1 BJV      -0.073000
     34 C93         -3.9070     9.4460     7.3480 ca         1 BJV      -0.101000
     35 C94         -2.9750     8.4390     6.6880 ca         1 BJV      -0.073000
     36 C95         -1.9730     8.1290     7.6000 ca         1 BJV      -0.101500
     37 N19          5.9390     2.7580     0.4150 na         1 BJV       0.510400
     38 N21          6.1450     3.9250     1.1680 nd         1 BJV      -0.645800
     39 N32          7.1450     3.9890    -3.2560 n3         1 BJV      -0.545500
     40 N4           2.0150     0.0000     1.3880 n3         1 BJV      -0.528600
     41 N85          0.8860     9.6660     7.3620 n7         1 BJV      -0.601200
     42 O1          -0.4710    -1.1310     0.7380 os         1 BJV      -0.403600
     43 O43          8.6000     2.6450    -4.6710 o          1 BJV      -0.583800
     44 O47          9.4500     4.6970    -3.5810 o          1 BJV      -0.583800
     45 O79          2.7180    12.6610     7.4650 os         1 BJV      -0.362900
     46 S41          8.4340     4.0060    -4.2950 s6         1 BJV       0.967900
     47 Cl6          7.9310    10.5170     1.8560 cl         1 BJV      -0.016400
     48 H1          -0.3500    -0.1170    -1.0180 h1         1 BJV       0.012450
     49 H2          -0.3500     0.9470     0.3910 h1         1 BJV       0.012450
     50 H3          -0.3720    -0.3250     2.6860 h1         1 BJV       0.012450
     51 H4          -0.3830    -2.0850     2.5300 h1         1 BJV       0.012450
     52 H5           1.8480    -1.0790     3.1420 h1         1 BJV       0.018200
     53 H6           1.8610    -2.1150     1.7110 h1         1 BJV       0.018200
     54 H7           1.8810     0.9170    -0.4590 h1         1 BJV       0.018200
     55 H8           1.8810    -0.8460    -0.5790 h1         1 BJV       0.018200
     56 H9           3.5450     2.1000     1.6130 hc         1 BJV       0.038200
     57 H10          3.6160     1.6760    -0.1030 hc         1 BJV       0.038200
     58 H11          3.8900    -0.7400     0.8260 h1         1 BJV       0.010700
     59 H12          3.8220    -0.0580     2.4560 h1         1 BJV       0.010700
     60 H13          5.8970     0.6680     0.3330 h1         1 BJV       0.037700
     61 H14          5.8190     1.3540     1.9610 h1         1 BJV       0.037700
     62 H15          5.1820     1.6200    -2.0300 hc         1 BJV       0.023200
     63 H16          6.9100     1.3400    -1.9120 hc         1 BJV       0.023200
     64 H17          5.1130     3.2990    -3.4700 h1         1 BJV       0.030200
     65 H18          6.4750     2.3000    -4.1450 h1         1 BJV       0.030200
     66 H19          6.1880     5.7170    -2.4610 h1         1 BJV       0.034700
     67 H20          7.9360     5.5240    -2.0320 h1         1 BJV       0.034700
     68 H21          7.5810     5.9810    -5.3660 h1         1 BJV       0.061367
     69 H22          7.0090     4.5100    -6.1630 h1         1 BJV       0.061367
     70 H23          8.6620     5.0770    -6.4350 h1         1 BJV       0.061367
     71 H24          5.3720     6.3880     2.2490 ha         1 BJV       0.126000
     72 H25          9.0140     8.7670    -0.1110 ha         1 BJV       0.117000
     73 H26          8.4410     6.4650    -0.7440 ha         1 BJV       0.128000
     74 H27          4.7250    12.2100     3.5430 ha         1 BJV       0.084000
     75 H28          3.7530    13.7340     5.4030 ha         1 BJV       0.150000
     76 H29          3.9910     8.9730     6.3820 ha         1 BJV       0.073000
     77 H30          1.9460    14.3400     6.4650 h1         1 BJV      -0.004300
     78 H31          3.4680    14.6190     7.3210 h1         1 BJV      -0.004300
     79 H32          1.9570    14.4650     8.2290 h1         1 BJV      -0.004300
     80 H33          2.3040    10.2950     8.7260 h1         1 BJV       0.014700
     81 H34          2.7250     8.8350     7.8040 h1         1 BJV       0.014700
     82 H35         -0.0010     9.9260     9.5790 h1         1 BJV       0.025200
     83 H36          0.2970     8.1980     9.1700 h1         1 BJV       0.025200
     84 H37         -1.6790    10.7750     9.1460 ha         1 BJV       0.088000
     85 H38         -4.3260    10.8720     8.5350 ha         1 BJV       0.106000
     86 H39         -4.9220     9.4930     6.9740 ha         1 BJV       0.078000
     87 H40         -3.2980     7.7380     5.9280 ha         1 BJV       0.106000
     88 H41         -1.3240     7.3520     7.2160 ha         1 BJV       0.088000
     89 H43          0.8150     8.9550     6.6610 hn         1 BJV       0.262800
     90 C13          3.4830     0.0580     1.4340 c3         1 BJV       0.162800
@<TRIPOS>BOND
     1     1     4 1   
     2     1    42 1   
     3     1    48 1   
     4     1    49 1   
     5     2     3 1   
     6     2    42 1   
     7     2    50 1   
     8     2    51 1   
     9     3    40 1   
    10     3    52 1   
    11     3    53 1   
    12     4    40 1   
    13     4    54 1   
    14     4    55 1   
    15     5     7 1   
    16     5    56 1   
    17     5    57 1   
    18     5    90 1   
    19     6     8 1   
    20     6    13 1   
    21     6    38 2   
    22     7    37 1   
    23     7    60 1   
    24     7    61 1   
    25     8     9 2   
    26     8    12 1   
    27     9    10 1   
    28     9    37 1   
    29    10    11 1   
    30    10    62 1   
    31    10    63 1   
    32    11    39 1   
    33    11    64 1   
    34    11    65 1   
    35    12    39 1   
    36    12    66 1   
    37    12    67 1   
    38    13    15 ar  
    39    13    19 ar  
    40    14    46 1   
    41    14    68 1   
    42    14    69 1   
    43    14    70 1   
    44    15    16 ar  
    45    15    71 1   
    46    16    17 ar  
    47    16    20 1   
    48    17    18 ar  
    49    17    47 1   
    50    18    19 ar  
    51    18    72 1   
    52    19    73 1   
    53    20    21 3   
    54    21    22 1   
    55    22    23 ar  
    56    22    27 ar  
    57    23    24 ar  
    58    23    74 1   
    59    24    25 ar  
    60    24    75 1   
    61    25    26 ar  
    62    25    45 1   
    63    26    27 ar  
    64    26    29 1   
    65    27    76 1   
    66    28    45 1   
    67    28    77 1   
    68    28    78 1   
    69    28    79 1   
    70    29    41 1   
    71    29    80 1   
    72    29    81 1   
    73    30    31 1   
    74    30    41 1   
    75    30    82 1   
    76    30    83 1   
    77    31    32 ar  
    78    31    36 ar  
    79    32    33 ar  
    80    32    84 1   
    81    33    34 ar  
    82    33    85 1   
    83    34    35 ar  
    84    34    86 1   
    85    35    36 ar  
    86    35    87 1   
    87    36    88 1   
    88    37    38 1   
    89    39    46 1   
    90    40    90 1   
    91    41    89 1   
    92    43    46 2   
    93    44    46 2   
    94    58    90 1   
    95    59    90 1   
@<TRIPOS>SUBSTRUCTURE
     1 BJV         1 TEMP              0 ****  ****    0 ROOT
