@<TRIPOS>MOLECULE
BJY
   77    82     1     0     0
SMALL
bcc


@<TRIPOS>ATOM
      1 C11          0.0000     0.0000     0.0000 cc         1 BJY       0.439800
      2 C14          0.7340    -0.0150     3.5440 c3         1 BJY      -0.022700
      3 C15          0.7470    -1.4600     4.0440 c3         1 BJY       0.167100
      4 C10          2.3310    -0.0040    -1.1900 c3         1 BJY       0.331100
      5 C9           1.4030     0.0000     0.0000 cc         1 BJY      -0.331600
      6 C1           5.5880     0.3160    -2.6660 c3         1 BJY       0.015700
      7 C8           1.8230     0.0000     1.2880 cd         1 BJY      -0.200600
      8 C7           3.2700     0.0070     1.7130 c3         1 BJY       0.035900
      9 C6           4.1360    -0.4360     0.5270 c3         1 BJY       0.248800
     10 C16          0.6210    -1.4740     5.5680 c3         1 BJY       0.126800
     11 C18          0.9230    -2.9460     7.4660 c3         1 BJY       0.153800
     12 C19          1.0000    -4.4150     7.8880 c3         1 BJY      -0.021400
     13 C20         -0.3550    -5.0850     7.6400 c3         1 BJY       0.025500
     14 C21         -0.7210    -4.9420     6.1600 c3         1 BJY      -0.021400
     15 C22         -0.7480    -3.4570     5.7870 c3         1 BJY       0.153800
     16 C23         -0.2670    -6.5460     7.9980 cc         1 BJY      -0.076400
     17 C24          0.5570    -7.4550     7.4510 cd         1 BJY      -0.224100
     18 C25         -0.6280    -8.5850     8.9870 ca         1 BJY      -0.233200
     19 C26         -1.2270    -9.4850     9.8630 ca         1 BJY       0.014000
     20 C27         -2.2120    -9.0300    10.7140 ca         1 BJY      -0.326300
     21 C30         -2.0590    -6.8680     9.9090 ca         1 BJY      -0.165300
     22 C31         -1.0590    -7.2430     9.0120 ca         1 BJY      -0.102800
     23 C32         -0.8750     0.0030    -1.1990 ca         1 BJY      -0.079500
     24 C33         -0.4870     0.6930    -2.3460 ca         1 BJY      -0.099500
     25 C34         -1.3040     0.6920    -3.4590 ca         1 BJY      -0.043000
     26 C35         -2.5060     0.0080    -3.4360 ca         1 BJY      -0.210300
     27 C36         -2.8960    -0.6780    -2.2990 ca         1 BJY      -0.043000
     28 C37         -2.0840    -0.6880    -1.1830 ca         1 BJY      -0.099500
     29 C38         -3.3940     0.0110    -4.6540 c3         1 BJY       0.640200
     30 F39         -3.0610    -1.0720    -5.4750 f          1 BJY      -0.207633
     31 F40         -4.7310    -0.0990    -4.2560 f          1 BJY      -0.207633
     32 F41         -3.2140     1.2050    -5.3590 f          1 BJY      -0.207633
     33 N12         -0.4020    -0.0080     1.2560 nd         1 BJY      -0.662800
     34 N13          0.7340    -0.0040     2.0790 na         1 BJY       0.504400
     35 N17          0.5700    -2.8630     6.0440 n3         1 BJY      -0.538600
     36 N28         -2.5950    -7.7640    10.7120 na         1 BJY       0.749800
     37 N43          0.3520    -8.6790     8.0300 na         1 BJY       0.446600
     38 N5           3.6900     0.2660    -0.6850 n3         1 BJY      -0.557500
     39 O29         -3.6080    -7.3540    11.6130 oh         1 BJY      -0.492200
     40 O3           5.5660     1.7980    -0.4480 o          1 BJY      -0.582800
     41 O4           3.8000     2.2230    -2.1290 o          1 BJY      -0.582800
     42 O42          1.9730    -2.0860     3.6610 oh         1 BJY      -0.578800
     43 S2           4.6880     1.3340    -1.4640 s6         1 BJY       0.966900
     44 H1          -0.1550     0.4860     3.9090 h1         1 BJY       0.047700
     45 H2           1.6140     0.5010     3.9090 h1         1 BJY       0.047700
     46 H3          -0.0850    -2.0000     3.6080 h1         1 BJY       0.018700
     47 H4           2.0440     0.8020    -1.8540 h1         1 BJY       0.034700
     48 H5           2.3190    -0.9920    -1.6330 h1         1 BJY       0.034700
     49 H6           6.3000     0.9340    -3.2010 h1         1 BJY       0.062033
     50 H7           4.8870    -0.1190    -3.3680 h1         1 BJY       0.062033
     51 H8           6.1160    -0.4740    -2.1460 h1         1 BJY       0.062033
     52 H9           3.4080    -0.6810     2.5390 hc         1 BJY       0.039700
     53 H10          3.5540     1.0070     2.0150 hc         1 BJY       0.039700
     54 H11          5.1720    -0.1900     0.7260 h1         1 BJY       0.021700
     55 H12          4.0330    -1.5040     0.3840 h1         1 BJY       0.021700
     56 H13          1.4770    -0.9740     6.0050 h1         1 BJY       0.025700
     57 H14         -0.2860    -0.9590     5.8600 h1         1 BJY       0.025700
     58 H15          0.1660    -2.4420     8.0540 h1         1 BJY       0.018450
     59 H16          1.8850    -2.4750     7.6260 h1         1 BJY       0.018450
     60 H17          1.7630    -4.9180     7.3060 hc         1 BJY       0.023700
     61 H18          1.2440    -4.4750     8.9420 hc         1 BJY       0.023700
     62 H19         -1.1110    -4.6030     8.2470 hc         1 BJY       0.029700
     63 H20         -1.6990    -5.3750     5.9870 hc         1 BJY       0.023700
     64 H21          0.0180    -5.4520     5.5540 hc         1 BJY       0.023700
     65 H22         -1.4940    -2.9500     6.3870 h1         1 BJY       0.018450
     66 H23         -0.9910    -3.3550     4.7370 h1         1 BJY       0.018450
     67 H24          1.2760    -7.2510     6.6670 h4         1 BJY       0.178000
     68 H25         -0.9250   -10.5250     9.8770 ha         1 BJY       0.144000
     69 H26         -2.6860    -9.7260    11.3960 h4         1 BJY       0.177000
     70 H27         -2.4010    -5.8410     9.9390 h4         1 BJY       0.177000
     71 H28          0.4540     1.2290    -2.3640 ha         1 BJY       0.125000
     72 H29         -1.0030     1.2270    -4.3510 ha         1 BJY       0.118500
     73 H30         -3.8380    -1.2130    -2.2870 ha         1 BJY       0.118500
     74 H31         -2.3910    -1.2260    -0.2940 ha         1 BJY       0.125000
     75 H33         -4.3950    -7.8470    11.4460 ho         1 BJY       0.452000
     76 H34          1.8000    -2.9680     3.3750 ho         1 BJY       0.399000
     77 H32          0.8450    -9.5170     7.7930 hn         1 BJY       0.140700
@<TRIPOS>BOND
     1     1     5 1   
     2     1    23 1   
     3     1    33 2   
     4     2     3 1   
     5     2    34 1   
     6     2    44 1   
     7     2    45 1   
     8     3    10 1   
     9     3    42 1   
    10     3    46 1   
    11     4     5 1   
    12     4    38 1   
    13     4    47 1   
    14     4    48 1   
    15     5     7 2   
    16     6    43 1   
    17     6    49 1   
    18     6    50 1   
    19     6    51 1   
    20     7     8 1   
    21     7    34 1   
    22     8     9 1   
    23     8    52 1   
    24     8    53 1   
    25     9    38 1   
    26     9    54 1   
    27     9    55 1   
    28    10    35 1   
    29    10    56 1   
    30    10    57 1   
    31    11    12 1   
    32    11    35 1   
    33    11    58 1   
    34    11    59 1   
    35    12    13 1   
    36    12    60 1   
    37    12    61 1   
    38    13    14 1   
    39    13    16 1   
    40    13    62 1   
    41    14    15 1   
    42    14    63 1   
    43    14    64 1   
    44    15    35 1   
    45    15    65 1   
    46    15    66 1   
    47    16    17 2   
    48    16    22 1   
    49    17    37 1   
    50    17    67 1   
    51    18    19 ar  
    52    18    22 ar  
    53    18    37 1   
    54    19    20 ar  
    55    19    68 1   
    56    20    36 1   
    57    20    69 1   
    58    21    22 ar  
    59    21    36 2   
    60    21    70 1   
    61    23    24 ar  
    62    23    28 ar  
    63    24    25 ar  
    64    24    71 1   
    65    25    26 ar  
    66    25    72 1   
    67    26    27 ar  
    68    26    29 1   
    69    27    28 ar  
    70    27    73 1   
    71    28    74 1   
    72    29    30 1   
    73    29    31 1   
    74    29    32 1   
    75    33    34 1   
    76    36    39 1   
    77    37    77 1   
    78    38    43 1   
    79    39    75 1   
    80    40    43 2   
    81    41    43 2   
    82    42    76 1   
@<TRIPOS>SUBSTRUCTURE
     1 BJY         1 TEMP              0 ****  ****    0 ROOT
