@<TRIPOS>MOLECULE
BJZ
   55    59     1     0     0
SMALL
bcc


@<TRIPOS>ATOM
      1 C1           0.0000     0.0000     0.0000 ca         1 BJZ      -0.008600
      2 C2           1.3830     0.0000     0.0000 ca         1 BJZ      -0.140500
      3 C4           2.0750     0.0000     1.2030 ca         1 BJZ      -0.061400
      4 C5           1.3780    -0.0000     2.4030 ca         1 BJZ      -0.140500
      5 C7          -0.0060     0.0000     2.3980 ca         1 BJZ      -0.008600
      6 C8          -0.6930    -0.0010     1.1970 ca         1 BJZ      -0.118000
      7 Cl10        -0.8790     0.0000     3.8970 cl         1 BJZ      -0.024400
      8 N11          3.4780    -0.0010     1.2060 n          1 BJZ       0.026400
      9 C12          4.2330    -0.1210     0.1060 c          1 BJZ       0.620500
     10 N13          5.5530    -0.0920     0.3860 n          1 BJZ      -0.149800
     11 C14          5.6570     0.0670     1.8320 c3         1 BJZ      -0.114600
     12 C15          4.2350     0.1270     2.3190 c          1 BJZ       0.638500
     13 O16          3.8520     0.2540     3.4620 o          1 BJZ      -0.583500
     14 C17          6.4380     1.3330     2.2160 c3         1 BJZ       0.152800
     15 N20          6.9100     1.0340     3.5940 nh         1 BJZ      -0.470300
     16 C21          7.2650    -0.4030     3.6010 c3         1 BJZ       0.136800
     17 C24          6.4420    -1.0770     2.4840 c3         1 BJZ       0.006600
     18 C26          5.4970    -2.0950     3.0710 ca         1 BJZ      -0.093300
     19 C27          5.2040    -3.2490     2.3650 ca         1 BJZ      -0.090000
     20 C29          4.3400    -4.1840     2.8950 ca         1 BJZ      -0.072500
     21 C31          3.7610    -3.9650     4.1480 ca         1 BJZ       0.019000
     22 C32          4.0620    -2.7980     4.8540 ca         1 BJZ      -0.072500
     23 C34          4.9320    -1.8730     4.3130 ca         1 BJZ      -0.090000
     24 C36          2.8630    -4.9310     4.7050 cg         1 BJZ       0.242800
     25 N37          2.1610    -5.6970     5.1630 n1         1 BJZ      -0.397800
     26 C38          8.0030     1.8160     3.9250 ca         1 BJZ       0.428200
     27 N39          8.4760     2.6860     3.0420 nb         1 BJZ      -0.662000
     28 C40          9.5130     3.4510     3.3120 ca         1 BJZ       0.440200
     29 C42         10.1510     3.3670     4.5520 ca         1 BJZ      -0.219900
     30 C43          9.6710     2.4560     5.5050 ca         1 BJZ      -0.035000
     31 C45          8.5870     1.6840     5.1840 ca         1 BJZ      -0.258300
     32 C47         11.3120     4.2240     4.8540 c          1 BJZ       0.975200
     33 O48         11.8610     4.1440     5.9350 o          1 BJZ      -0.876800
     34 O49         11.7650     5.0950     3.9310 o          1 BJZ      -0.876800
     35 C51          6.6580    -0.1980    -0.5710 c3         1 BJZ       0.128300
     36 O55          3.7810    -0.2440    -1.0150 o          1 BJZ      -0.700500
     37 Cl56        -0.8670     0.0080    -1.5050 cl         1 BJZ      -0.024400
     38 H2           1.9250     0.0000    -0.9380 ha         1 BJZ       0.177500
     39 H5           1.9160     0.0000     3.3430 ha         1 BJZ       0.177500
     40 H8          -1.7770    -0.0000     1.1940 ha         1 BJZ       0.122000
     41 H17          5.7850     2.1980     2.2170 h1         1 BJZ       0.048700
     42 H17A         7.2780     1.4790     1.5490 h1         1 BJZ       0.048700
     43 H21          8.3230    -0.5210     3.4000 h1         1 BJZ       0.033200
     44 H21A         7.0140    -0.8400     4.5590 h1         1 BJZ       0.033200
     45 H24          7.1010    -1.5400     1.7600 hc         1 BJZ       0.046700
     46 H27          5.6540    -3.4170     1.3940 ha         1 BJZ       0.133500
     47 H29          4.1120    -5.0870     2.3420 ha         1 BJZ       0.113500
     48 H32          3.6190    -2.6220     5.8270 ha         1 BJZ       0.113500
     49 H34          5.1660    -0.9670     4.8590 ha         1 BJZ       0.133500
     50 H40          9.8720     4.1510     2.5680 h4         1 BJZ       0.010100
     51 H43         10.0000     2.5250     6.5350 ha         1 BJZ       0.126000
     52 H45          8.1010     1.0890     5.9470 ha         1 BJZ       0.105000
     53 H51          7.5940    -0.2870    -0.0330 h1         1 BJZ       0.016367
     54 H51A         6.6830     0.6880    -1.1940 h1         1 BJZ       0.016367
     55 H51B         6.5140    -1.0730    -1.1930 h1         1 BJZ       0.016367
@<TRIPOS>BOND
     1     1     2 ar  
     2     1     6 ar  
     3     1    37 1   
     4     2     3 ar  
     5     2    38 1   
     6     3     4 ar  
     7     3     8 1   
     8     4     5 ar  
     9     4    39 1   
    10     5     6 ar  
    11     5     7 1   
    12     6    40 1   
    13     8     9 1   
    14     8    12 1   
    15     9    10 1   
    16     9    36 2   
    17    10    11 1   
    18    10    35 1   
    19    11    12 1   
    20    11    14 1   
    21    11    17 1   
    22    12    13 2   
    23    14    15 1   
    24    14    41 1   
    25    14    42 1   
    26    15    16 1   
    27    15    26 1   
    28    16    17 1   
    29    16    43 1   
    30    16    44 1   
    31    17    18 1   
    32    17    45 1   
    33    18    19 ar  
    34    18    23 ar  
    35    19    20 ar  
    36    19    46 1   
    37    20    21 ar  
    38    20    47 1   
    39    21    22 ar  
    40    21    24 1   
    41    22    23 ar  
    42    22    48 1   
    43    23    49 1   
    44    24    25 3   
    45    26    27 ar  
    46    26    31 ar  
    47    27    28 ar  
    48    28    29 ar  
    49    28    50 1   
    50    29    30 ar  
    51    29    32 1   
    52    30    31 ar  
    53    30    51 1   
    54    31    52 1   
    55    32    33 1   
    56    32    34 1   
    57    35    53 1   
    58    35    54 1   
    59    35    55 1   
@<TRIPOS>SUBSTRUCTURE
     1 BJZ         1 TEMP              0 ****  ****    0 ROOT
