@<TRIPOS>MOLECULE
BK1
   43    46     1     0     0
SMALL
bcc


@<TRIPOS>ATOM
      1 N1           0.0000     0.0000     0.0000 nb         1 BK1      -0.717000
      2 C2           1.3220     0.0000     0.0000 ca         1 BK1       0.690900
      3 N3           2.0310     0.0000     1.1090 nb         1 BK1      -0.671000
      4 C4           1.4320     0.0010     2.2980 ca         1 BK1       0.328800
      5 C5           0.0250     0.0010     2.3500 ca         1 BK1      -0.525500
      6 C6          -0.6880    -0.0000     1.1370 ca         1 BK1       0.616200
      7 CAA          3.5420     1.2510     4.8620 c3         1 BK1      -0.011100
      8 CAB          3.5430    -1.2480     4.8620 c3         1 BK1      -0.011100
      9 NAC         -2.0690    -0.0000     1.1260 nv         1 BK1      -0.594500
     10 CAD         -1.1740    -3.2470     8.1670 ca         1 BK1      -0.099000
     11 CAE         -0.7710    -1.9370     7.9130 ca         1 BK1      -0.100000
     12 CAF         -3.3020    -3.4250     3.8870 ca         1 BK1      -0.101000
     13 CAG         -2.8890    -2.1180     3.6280 ca         1 BK1      -0.102000
     14 CAH         -1.8920    -3.9500     7.2500 ca         1 BK1      -0.092000
     15 CAI         -2.9820    -4.0410     5.0580 ca         1 BK1      -0.086000
     16 CAJ         -1.0860    -1.3230     6.7400 ca         1 BK1      -0.090000
     17 NAO          0.7490     0.0010     4.4310 nc         1 BK1      -0.627100
     18 CAQ         -2.1710    -1.4150     4.5450 ca         1 BK1      -0.075300
     19 CAR         -0.3380     0.0010     3.7150 cd         1 BK1       0.427900
     20 CAS         -2.2410    -3.3470     6.0290 ca         1 BK1      -0.034000
     21 CAT         -1.8280    -2.0160     5.7690 ca         1 BK1      -0.023000
     22 NAX          1.8690     0.0020     3.5900 na         1 BK1       0.386200
     23 H2           1.8420     0.0000    -0.9500 h5         1 BK1      -0.003900
     24 HAA          4.6010     1.3120     5.0860 hc         1 BK1       0.015700
     25 HAAA         2.9810     1.1910     5.7870 hc         1 BK1       0.015700
     26 HAAB         3.2390     2.1340     4.3130 hc         1 BK1       0.015700
     27 HAB          3.1670    -2.1210     4.3430 hc         1 BK1       0.015700
     28 HABA         4.6100    -1.3510     5.0180 hc         1 BK1       0.015700
     29 HABB         3.0450    -1.1550     5.8200 hc         1 BK1       0.015700
     30 HNAC        -2.5650    -0.7000     0.6100 hn         1 BK1       0.281800
     31 HNAA        -2.5720     0.7410     1.5730 hn         1 BK1       0.281800
     32 HAE         -0.2000    -1.4000     8.6600 ha         1 BK1       0.101000
     33 HAF         -3.8730    -3.9620     3.1400 ha         1 BK1       0.101000
     34 HAG         -3.1570    -1.6510     2.6890 ha         1 BK1       0.103000
     35 HAH         -2.1980    -4.9680     7.4610 ha         1 BK1       0.105000
     36 HAI         -3.3090    -5.0570     5.2460 ha         1 BK1       0.105000
     37 HAJ         -0.7660    -0.3040     6.5560 ha         1 BK1       0.126000
     38 CAL         -1.7460     0.0010     4.2510 c3         1 BK1       0.027600
     39 CAW          3.2690     0.0020     4.0230 c3         1 BK1      -0.031000
     40 HAD         -0.9100    -3.7130     9.1090 ha         1 BK1       0.100000
     41 HAL         -2.4130     0.4330     3.5150 hc         1 BK1       0.030700
     42 HALA        -1.7860     0.5860     5.1620 hc         1 BK1       0.030700
     43 HAW          3.9160     0.0020     3.1540 h1         1 BK1       0.056700
@<TRIPOS>BOND
     1     1     2 ar  
     2     1     6 ar  
     3     2     3 ar  
     4     2    23 1   
     5     3     4 ar  
     6     4     5 ar  
     7     4    22 1   
     8     5     6 ar  
     9     5    19 1   
    10     6     9 1   
    11     7    24 1   
    12     7    25 1   
    13     7    26 1   
    14     7    39 1   
    15     8    27 1   
    16     8    28 1   
    17     8    29 1   
    18     8    39 1   
    19     9    30 1   
    20     9    31 1   
    21    10    11 ar  
    22    10    14 ar  
    23    10    40 1   
    24    11    16 ar  
    25    11    32 1   
    26    12    13 ar  
    27    12    15 ar  
    28    12    33 1   
    29    13    18 ar  
    30    13    34 1   
    31    14    20 ar  
    32    14    35 1   
    33    15    20 ar  
    34    15    36 1   
    35    16    21 ar  
    36    16    37 1   
    37    17    19 2   
    38    17    22 1   
    39    18    21 ar  
    40    18    38 1   
    41    19    38 1   
    42    20    21 ar  
    43    22    39 1   
    44    38    41 1   
    45    38    42 1   
    46    39    43 1   
@<TRIPOS>SUBSTRUCTURE
     1 BK1         1 TEMP              0 ****  ****    0 ROOT
