@<TRIPOS>MOLECULE
molecule
   43    46     1     0     0
SMALL
bcc


@<TRIPOS>ATOM
      1 N1           0.0000     0.0000     0.0000 nb         1 BK1      -0.818000
      2 C2           1.3220     0.0000     0.0000 ca         1 BK1       0.740900
      3 N3           2.0310     0.0000     1.1090 nb         1 BK1      -0.789000
      4 C4           1.4320     0.0010     2.2980 ca         1 BK1       0.518800
      5 C5           0.0250     0.0010     2.3500 ca         1 BK1      -0.512500
      6 C6          -0.6880    -0.0000     1.1370 ca         1 BK1       0.786200
      7 CAA          3.5420     1.2510     4.8620 c3         1 BK1      -0.106600
      8 CAB          3.5430    -1.2480     4.8620 c3         1 BK1      -0.106600
      9 NAC         -2.0690    -0.0000     1.1260 nv         1 BK1      -1.048500
     10 CAD         -1.1740    -3.2470     8.1670 ca         1 BK1      -0.125000
     11 CAE         -0.7710    -1.9370     7.9130 ca         1 BK1      -0.127000
     12 CAF         -3.3020    -3.4250     3.8870 ca         1 BK1      -0.129000
     13 CAG         -2.8890    -2.1180     3.6280 ca         1 BK1      -0.116000
     14 CAH         -1.8920    -3.9500     7.2500 ca         1 BK1      -0.119000
     15 CAI         -2.9820    -4.0410     5.0580 ca         1 BK1      -0.112000
     16 CAJ         -1.0860    -1.3230     6.7400 ca         1 BK1      -0.109000
     17 NAO          0.7490     0.0010     4.4310 nc         1 BK1      -0.501100
     18 CAQ         -2.1710    -1.4150     4.5450 ca         1 BK1      -0.071300
     19 CAR         -0.3380     0.0010     3.7150 cd         1 BK1       0.401900
     20 CAS         -2.2410    -3.3470     6.0290 ca         1 BK1      -0.034000
     21 CAT         -1.8280    -2.0160     5.7690 ca         1 BK1      -0.026000
     22 NAX          1.8690     0.0020     3.5900 na         1 BK1      -0.021800
     23 H2           1.8420     0.0000    -0.9500 h5         1 BK1       0.060100
     24 HAA          4.6010     1.3120     5.0860 hc         1 BK1       0.048200
     25 HAAA         2.9810     1.1910     5.7870 hc         1 BK1       0.048200
     26 HAAB         3.2390     2.1340     4.3130 hc         1 BK1       0.048200
     27 HAB          3.1670    -2.1210     4.3430 hc         1 BK1       0.048200
     28 HABA         4.6100    -1.3510     5.0180 hc         1 BK1       0.048200
     29 HABB         3.0450    -1.1550     5.8200 hc         1 BK1       0.048200
     30 HNAC        -2.5650    -0.7000     0.6100 hn         1 BK1       0.442800
     31 HNAA        -2.5720     0.7410     1.5730 hn         1 BK1       0.442800
     32 HAE         -0.2000    -1.4000     8.6600 ha         1 BK1       0.128000
     33 HAF         -3.8730    -3.9620     3.1400 ha         1 BK1       0.128000
     34 HAG         -3.1570    -1.6510     2.6890 ha         1 BK1       0.128000
     35 HAH         -2.1980    -4.9680     7.4610 ha         1 BK1       0.132000
     36 HAI         -3.3090    -5.0570     5.2460 ha         1 BK1       0.132000
     37 HAJ         -0.7660    -0.3040     6.5560 ha         1 BK1       0.144000
     38 CAL         -1.7460     0.0010     4.2510 c3         1 BK1      -0.031400
     39 CAW          3.2690     0.0020     4.0230 c3         1 BK1       0.087000
     40 HAD         -0.9100    -3.7130     9.1090 ha         1 BK1       0.127000
     41 HAL         -2.4130     0.4330     3.5150 hc         1 BK1       0.063200
     42 HALA        -1.7860     0.5860     5.1620 hc         1 BK1       0.063200
     43 HAW          3.9160     0.0020     3.1540 h1         1 BK1       0.086700
@<TRIPOS>BOND
     1     2     1 ar
     2     6     1 ar
     3     3     2 ar
     4     2    23 1
     5     4     3 ar
     6    22     4 1
     7     4     5 ar
     8    19     5 1
     9     5     6 ar
    10     6     9 1
    11    39     7 1
    12     7    24 1
    13     7    25 1
    14     7    26 1
    15     8    39 1
    16     8    27 1
    17     8    28 1
    18     8    29 1
    19     9    30 1
    20     9    31 1
    21    11    10 ar
    22    10    14 ar
    23    10    40 1
    24    16    11 ar
    25    11    32 1
    26    13    12 ar
    27    12    15 ar
    28    12    33 1
    29    18    13 ar
    30    13    34 1
    31    20    14 ar
    32    14    35 1
    33    20    15 ar
    34    15    36 1
    35    16    21 ar
    36    16    37 1
    37    19    38 1
    38    38    18 1
    39    38    41 1
    40    38    42 1
    41    22    17 1
    42    17    19 2
    43    18    21 ar
    44    21    20 ar
    45    39    22 1
    46    39    43 1
@<TRIPOS>SUBSTRUCTURE
     1 BK1         1 TEMP              0 ****  ****    0 ROOT
