@<TRIPOS>MOLECULE
molecule
   43    46     1     0     0
SMALL
bcc


@<TRIPOS>ATOM
      1 N1           0.0000     0.0000     0.0000 nb         1 BK2      -0.801000
      2 C2           1.3210     0.0000     0.0000 ca         1 BK2       0.728900
      3 N3           2.0310     0.0000     1.1070 nb         1 BK2      -0.780000
      4 C4           1.4330    -0.0010     2.2980 ca         1 BK2       0.516800
      5 C5           0.0270    -0.0010     2.3470 ca         1 BK2      -0.496500
      6 C6          -0.6870    -0.0010     1.1380 ca         1 BK2       0.786200
      7 CAA          3.9730     1.2490     3.4530 c3         1 BK2      -0.100100
      8 CAB          3.9730    -1.2500     3.4530 c3         1 BK2      -0.100100
      9 CAC          3.3630    -0.0010     5.5290 c3         1 BK2      -0.100100
     10 NAD         -2.0690    -0.0030     1.1320 nv         1 BK2      -1.073500
     11 CAE         -5.9100     0.7610     6.9120 ca         1 BK2      -0.120000
     12 CAF         -4.9500     1.5980     7.4780 ca         1 BK2      -0.128000
     13 CAH         -2.6830    -0.8590     3.7710 ca         1 BK2      -0.096000
     14 CAI         -5.6020    -0.0520     5.8660 ca         1 BK2      -0.120000
     15 CAJ         -3.6780     1.6320     6.9930 ca         1 BK2      -0.110000
     16 CAK         -3.9500    -0.8790     4.2600 ca         1 BK2      -0.128000
     17 CAL         -2.0250     0.8250     5.3820 ca         1 BK2      -0.084000
     18 NAO          0.7770    -0.0010     4.4550 nc         1 BK2      -0.488100
     19 CAQ         -1.7130    -0.0020     4.3170 ca         1 BK2      -0.094900
     20 CAR         -0.3380    -0.0020     3.7640 cd         1 BK2       0.443500
     21 CAS         -4.2990    -0.0510     5.3420 ca         1 BK2      -0.028000
     22 CAT         -3.3250     0.8110     5.9080 ca         1 BK2      -0.043000
     23 NAW          1.8750    -0.0000     3.5880 na         1 BK2      -0.023800
     24 CAX          3.2800    -0.0010     4.0020 c3         1 BK2       0.093700
     25 H2           1.8400     0.0010    -0.9510 h5         1 BK2       0.060100
     26 HAA          3.3490     2.1160     3.6310 hc         1 BK2       0.050589
     27 HAAA         4.1360     1.1330     2.3890 hc         1 BK2       0.050589
     28 HAAB         4.9260     1.3820     3.9520 hc         1 BK2       0.050589
     29 HAB          4.1290    -1.1370     2.3870 hc         1 BK2       0.050589
     30 HABA         3.3510    -2.1170     3.6360 hc         1 BK2       0.050589
     31 HABB         4.9280    -1.3790     3.9460 hc         1 BK2       0.050589
     32 HAC          4.4020    -0.0230     5.8340 hc         1 BK2       0.050589
     33 HACA         2.8540    -0.8750     5.9170 hc         1 BK2       0.050589
     34 HACB         2.8910     0.8930     5.9160 hc         1 BK2       0.050589
     35 HNAD        -2.5670    -0.8360     0.8860 hn         1 BK2       0.444300
     36 HNAA        -2.5710     0.8440     1.3120 hn         1 BK2       0.444300
     37 HAE         -6.9150     0.7530     7.3170 ha         1 BK2       0.129000
     38 HAF         -5.2220     2.2360     8.3110 ha         1 BK2       0.130000
     39 HAH         -2.4220    -1.5000     2.9380 ha         1 BK2       0.139000
     40 HAI         -6.3600    -0.6970     5.4370 ha         1 BK2       0.133000
     41 HAJ         -2.9420     2.2880     7.4420 ha         1 BK2       0.135000
     42 HAK         -4.6860    -1.5460     3.8280 ha         1 BK2       0.134000
     43 HAL         -1.2740     1.4850     5.7990 ha         1 BK2       0.146000
@<TRIPOS>BOND
     1     2     1 ar
     2     1     6 ar
     3     3     2 ar
     4     2    25 1
     5     3     4 ar
     6    23     4 1
     7     4     5 ar
     8     5    20 1
     9     5     6 ar
    10     6    10 1
    11     7    24 1
    12     7    26 1
    13     7    27 1
    14     7    28 1
    15    24     8 1
    16     8    29 1
    17     8    30 1
    18     8    31 1
    19     9    24 1
    20     9    32 1
    21     9    33 1
    22     9    34 1
    23    10    35 1
    24    10    36 1
    25    14    11 ar
    26    11    12 ar
    27    11    37 1
    28    15    12 ar
    29    12    38 1
    30    13    16 ar
    31    13    19 ar
    32    13    39 1
    33    21    14 ar
    34    14    40 1
    35    22    15 ar
    36    15    41 1
    37    16    21 ar
    38    16    42 1
    39    19    17 ar
    40    17    22 ar
    41    17    43 1
    42    23    18 1
    43    18    20 2
    44    20    19 1
    45    21    22 ar
    46    24    23 1
@<TRIPOS>SUBSTRUCTURE
     1 BK2         1 TEMP              0 ****  ****    0 ROOT
