@<TRIPOS>MOLECULE
BK3
   52    56     1     0     0
SMALL
bcc


@<TRIPOS>ATOM
      1 N1           0.0000     0.0000     0.0000 nb         1 BK3      -0.697000
      2 C2           1.3220     0.0000     0.0000 ca         1 BK3       0.678900
      3 N3           2.0310     0.0000     1.1070 nb         1 BK3      -0.654000
      4 C4           1.4340     0.0000     2.2980 ca         1 BK3       0.315800
      5 C5           0.0260     0.0010     2.3510 ca         1 BK3      -0.511500
      6 C6          -0.6880     0.0000     1.1370 ca         1 BK3       0.621200
      7 NAA         -2.0690     0.0000     1.1290 nv         1 BK3      -0.640500
      8 NBB          1.8710     0.0000     3.5880 na         1 BK3       0.388200
      9 NAR          0.7520     0.0000     4.4310 nc         1 BK3      -0.627100
     10 NAS          4.9620     3.4960     5.8050 n7         1 BK3      -0.580200
     11 CAB         -1.1950    -3.2300     8.1850 ca         1 BK3      -0.098000
     12 CAC         -0.7830    -1.9250     7.9240 ca         1 BK3      -0.099000
     13 CAD         -3.2930    -3.4250     3.8910 ca         1 BK3      -0.102000
     14 CAE         -2.8900    -2.1160     3.6350 ca         1 BK3      -0.103000
     15 CAG         -1.9110    -3.9360     7.2670 ca         1 BK3      -0.092000
     16 CAH         -2.9860    -4.0350     5.0690 ca         1 BK3      -0.086000
     17 CAI         -1.0910    -1.3150     6.7460 ca         1 BK3      -0.090000
     18 CAJ          5.7230     2.8860     4.7090 c3         1 BK3       0.148800
     19 CAK          3.5270     3.5480     5.4920 c3         1 BK3       0.148800
     20 CAL          5.2550     1.4440     4.5010 c3         1 BK3      -0.024900
     21 CAM          2.9930     2.1260     5.3060 c3         1 BK3      -0.024900
     22 CAO          3.2710    -0.0010     4.0200 c3         1 BK3      -0.002700
     23 CAU         -2.1700    -1.4130     4.5500 ca         1 BK3      -0.074300
     24 CAV         -0.3360     0.0010     3.7160 cd         1 BK3       0.431900
     25 CAW         -2.2470    -3.3390     6.0400 ca         1 BK3      -0.034000
     26 CAX         -1.8330    -2.0090     5.7780 ca         1 BK3      -0.023000
     27 CBA          3.7590     1.4420     4.1710 c3         1 BK3      -0.074700
     28 H2           1.8410    -0.0000    -0.9510 h5         1 BK3      -0.002900
     29 HNAA        -2.5670    -0.8160     0.8340 hn         1 BK3       0.284300
     30 HNAB        -2.5700     0.8370     1.3530 hn         1 BK3       0.284300
     31 HNAS         5.3010     4.4230     5.9720 hn         1 BK3       0.251800
     32 HAC         -0.2140    -1.3850     8.6710 ha         1 BK3       0.101000
     33 HAD         -3.8660    -3.9630     3.1450 ha         1 BK3       0.101000
     34 HAE         -3.1480    -1.6530     2.6900 ha         1 BK3       0.105000
     35 HAG         -2.2250    -4.9500     7.4830 ha         1 BK3       0.105000
     36 HAH         -3.3060    -5.0530     5.2540 ha         1 BK3       0.105000
     37 HAI         -0.7630    -0.3000     6.5570 ha         1 BK3       0.125000
     38 HAJ          5.5610     3.4520     3.8000 h1         1 BK3       0.005700
     39 HAJA         6.7780     2.8890     4.9590 h1         1 BK3       0.005700
     40 HAK          3.3790     4.1100     4.5780 h1         1 BK3       0.005700
     41 HAKA         2.9980     4.0270     6.3070 h1         1 BK3       0.005700
     42 HAL          5.8060     1.0020     3.6800 hc         1 BK3       0.026450
     43 HALA         5.4250     0.8750     5.4060 hc         1 BK3       0.026450
     44 HAM          3.1330     1.5660     6.2230 hc         1 BK3       0.026450
     45 HAMA         1.9400     2.1660     5.0570 hc         1 BK3       0.026450
     46 HAO          3.3550    -0.5120     4.9720 h1         1 BK3       0.043700
     47 HAOA         3.8760    -0.5120     3.2820 h1         1 BK3       0.043700
     48 HBA          3.5930     1.9830     3.2470 hc         1 BK3       0.038700
     49 CAN         -1.7440     0.0020     4.2540 c3         1 BK3       0.025600
     50 HAB         -0.9370    -3.6930     9.1310 ha         1 BK3       0.100000
     51 HAN         -2.4110     0.4330     3.5170 hc         1 BK3       0.032700
     52 HANA        -1.7820     0.5890     5.1630 hc         1 BK3       0.032700
@<TRIPOS>BOND
     1     1     2 ar  
     2     1     6 ar  
     3     2     3 ar  
     4     2    28 1   
     5     3     4 ar  
     6     4     5 ar  
     7     4     8 1   
     8     5     6 ar  
     9     5    24 1   
    10     6     7 1   
    11     7    29 1   
    12     7    30 1   
    13     8     9 1   
    14     8    22 1   
    15     9    24 2   
    16    10    18 1   
    17    10    19 1   
    18    10    31 1   
    19    11    12 ar  
    20    11    15 ar  
    21    11    50 1   
    22    12    17 ar  
    23    12    32 1   
    24    13    14 ar  
    25    13    16 ar  
    26    13    33 1   
    27    14    23 ar  
    28    14    34 1   
    29    15    25 ar  
    30    15    35 1   
    31    16    25 ar  
    32    16    36 1   
    33    17    26 ar  
    34    17    37 1   
    35    18    20 1   
    36    18    38 1   
    37    18    39 1   
    38    19    21 1   
    39    19    40 1   
    40    19    41 1   
    41    20    27 1   
    42    20    42 1   
    43    20    43 1   
    44    21    27 1   
    45    21    44 1   
    46    21    45 1   
    47    22    27 1   
    48    22    46 1   
    49    22    47 1   
    50    23    26 ar  
    51    23    49 1   
    52    24    49 1   
    53    25    26 ar  
    54    27    48 1   
    55    49    51 1   
    56    49    52 1   
@<TRIPOS>SUBSTRUCTURE
     1 BK3         1 TEMP              0 ****  ****    0 ROOT
