@<TRIPOS>MOLECULE
molecule
   44    47     1     0     0
SMALL
bcc


@<TRIPOS>ATOM
      1 N1           0.0000     0.0000     0.0000 nb         1 BK4      -0.801000
      2 C2           1.3210     0.0000     0.0000 ca         1 BK4       0.730900
      3 N3           2.0310     0.0000     1.1070 nb         1 BK4      -0.781000
      4 C4           1.4340     0.0000     2.2980 ca         1 BK4       0.513800
      5 C5           0.0270     0.0010     2.3480 ca         1 BK4      -0.496500
      6 C6          -0.6860     0.0010     1.1380 ca         1 BK4       0.786200
      7 CAA         -7.4540     1.6940     8.4710 c3         1 BK4       0.128700
      8 CAB          3.5680     1.2490     4.8370 c3         1 BK4      -0.107100
      9 CAC          3.5660    -1.2500     4.8380 c3         1 BK4      -0.107100
     10 NAD         -2.0680     0.0010     1.1320 nv         1 BK4      -1.073500
     11 CAF         -4.9650     1.6650     7.4310 ca         1 BK4      -0.206000
     12 CAG         -2.6830    -0.8540     3.7710 ca         1 BK4      -0.085000
     13 CAH         -3.6930     1.6900     6.9490 ca         1 BK4      -0.073000
     14 CAI         -3.9500    -0.8740     4.2600 ca         1 BK4      -0.137000
     15 CAJ         -5.6080    -0.0290     5.8500 ca         1 BK4      -0.168000
     16 CAK         -2.0300     0.8480     5.3640 ca         1 BK4      -0.073000
     17 NAN          0.7780     0.0010     4.4560 nc         1 BK4      -0.490100
     18 CAP         -5.9230     0.8050     6.8840 ca         1 BK4       0.146100
     19 CAQ         -1.7120     0.0020     4.3170 ca         1 BK4      -0.108900
     20 CAS         -0.3380     0.0020     3.7640 cd         1 BK4       0.447500
     21 CAT         -4.3050    -0.0260     5.3250 ca         1 BK4       0.009000
     22 CAU         -3.3340     0.8440     5.8840 ca         1 BK4      -0.076000
     23 NAY          1.8750     0.0000     3.5890 na         1 BK4      -0.027800
     24 H2           1.8410    -0.0010    -0.9510 h5         1 BK4       0.061100
     25 HAA         -6.8050     1.4570     9.3050 h1         1 BK4       0.041700
     26 HAAA        -7.2740     2.7130     8.1510 h1         1 BK4       0.041700
     27 HAAB        -8.4880     1.5890     8.7760 h1         1 BK4       0.041700
     28 HAB          3.2530     2.1300     4.2900 hc         1 BK4       0.048367
     29 HABA         3.0230     1.1910     5.7720 hc         1 BK4       0.048367
     30 HABB         4.6300     1.3120     5.0410 hc         1 BK4       0.048367
     31 HAC          4.6250    -1.3030     5.0570 hc         1 BK4       0.048367
     32 HACA         3.2670    -2.1310     4.2840 hc         1 BK4       0.048367
     33 HACB         3.0070    -1.1990     5.7650 hc         1 BK4       0.048367
     34 HNAD        -2.5690     0.8490     1.3090 hn         1 BK4       0.444300
     35 HNAA        -2.5670    -0.8310     0.8850 hn         1 BK4       0.444300
     36 HAF         -5.2390     2.3170     8.2510 ha         1 BK4       0.136000
     37 HAG         -2.4170    -1.5100     2.9510 ha         1 BK4       0.138000
     38 HAH         -2.9600     2.3610     7.3810 ha         1 BK4       0.136000
     39 HAI         -4.6870    -1.5400     3.8290 ha         1 BK4       0.136000
     40 HAJ         -6.3590    -0.6900     5.4360 ha         1 BK4       0.148000
     41 HAK         -1.2780     1.5060     5.7810 ha         1 BK4       0.144000
     42 HAX          3.9150    -0.0010     3.1230 h1         1 BK4       0.086700
     43 CAX          3.2810     0.0000     4.0020 c3         1 BK4       0.085000
     44 OAO         -7.1840     0.7990     7.3890 os         1 BK4      -0.328900
@<TRIPOS>BOND
     1     1     6 ar
     2     2     1 ar
     3     2    24 1
     4     3     2 ar
     5     3     4 ar
     6     4     5 ar
     7     5     6 ar
     8     5    20 1
     9     6    10 1
    10     7    44 1
    11     7    25 1
    12     7    26 1
    13     7    27 1
    14     8    28 1
    15     8    29 1
    16     8    30 1
    17     9    43 1
    18     9    31 1
    19     9    32 1
    20     9    33 1
    21    10    34 1
    22    10    35 1
    23    11    36 1
    24    12    14 ar
    25    12    19 ar
    26    12    37 1
    27    13    11 ar
    28    13    38 1
    29    14    21 ar
    30    14    39 1
    31    15    18 ar
    32    15    40 1
    33    16    22 ar
    34    16    41 1
    35    17    20 2
    36    18    11 ar
    37    18    44 1
    38    19    16 ar
    39    20    19 1
    40    21    15 ar
    41    21    22 ar
    42    22    13 ar
    43    43     8 1
    44    43    23 1
    45    43    42 1
    46    23     4 1
    47    23    17 1
@<TRIPOS>SUBSTRUCTURE
     1 BK4         1 TEMP              0 ****  ****    0 ROOT
