@<TRIPOS>MOLECULE
BK4
   44    47     1     0     0
SMALL
bcc


@<TRIPOS>ATOM
      1 N1           0.0000     0.0000     0.0000 nb         1 BK4      -0.695000
      2 C2           1.3210     0.0000     0.0000 ca         1 BK4       0.676900
      3 N3           2.0310     0.0000     1.1070 nb         1 BK4      -0.656000
      4 C4           1.4340     0.0000     2.2980 ca         1 BK4       0.320800
      5 C5           0.0270     0.0010     2.3480 ca         1 BK4      -0.507500
      6 C6          -0.6860     0.0010     1.1380 ca         1 BK4       0.622200
      7 CAA         -7.4540     1.6940     8.4710 c3         1 BK4       0.243700
      8 CAB          3.5680     1.2490     4.8370 c3         1 BK4      -0.011100
      9 CAC          3.5660    -1.2500     4.8380 c3         1 BK4      -0.011100
     10 NAD         -2.0680     0.0010     1.1320 nv         1 BK4      -0.646500
     11 CAF         -4.9650     1.6650     7.4310 ca         1 BK4      -0.195000
     12 CAG         -2.6830    -0.8540     3.7710 ca         1 BK4      -0.077000
     13 CAH         -3.6930     1.6900     6.9490 ca         1 BK4      -0.039000
     14 CAI         -3.9500    -0.8740     4.2600 ca         1 BK4      -0.106000
     15 CAJ         -5.6080    -0.0290     5.8500 ca         1 BK4      -0.152000
     16 CAK         -2.0300     0.8480     5.3640 ca         1 BK4      -0.042000
     17 NAN          0.7780     0.0010     4.4560 nc         1 BK4      -0.618100
     18 CAP         -5.9230     0.8050     6.8840 ca         1 BK4       0.155100
     19 CAQ         -1.7120     0.0020     4.3170 ca         1 BK4      -0.116900
     20 CAS         -0.3380     0.0020     3.7640 cd         1 BK4       0.487500
     21 CAT         -4.3050    -0.0260     5.3250 ca         1 BK4       0.012000
     22 CAU         -3.3340     0.8440     5.8840 ca         1 BK4      -0.079000
     23 NAY          1.8750     0.0000     3.5890 na         1 BK4       0.378200
     24 H2           1.8410    -0.0010    -0.9510 h5         1 BK4      -0.002900
     25 HAA         -6.8050     1.4570     9.3050 h1         1 BK4      -0.002300
     26 HAAA        -7.2740     2.7130     8.1510 h1         1 BK4      -0.002300
     27 HAAB        -8.4880     1.5890     8.7760 h1         1 BK4      -0.002300
     28 HAB          3.2530     2.1300     4.2900 hc         1 BK4       0.015533
     29 HABA         3.0230     1.1910     5.7720 hc         1 BK4       0.015533
     30 HABB         4.6300     1.3120     5.0410 hc         1 BK4       0.015533
     31 HAC          4.6250    -1.3030     5.0570 hc         1 BK4       0.015533
     32 HACA         3.2670    -2.1310     4.2840 hc         1 BK4       0.015533
     33 HACB         3.0070    -1.1990     5.7650 hc         1 BK4       0.015533
     34 HNAD        -2.5690     0.8490     1.3090 hn         1 BK4       0.285800
     35 HNAA        -2.5670    -0.8310     0.8850 hn         1 BK4       0.285800
     36 HAF         -5.2390     2.3170     8.2510 ha         1 BK4       0.119000
     37 HAG         -2.4170    -1.5100     2.9510 ha         1 BK4       0.112000
     38 HAH         -2.9600     2.3610     7.3810 ha         1 BK4       0.106000
     39 HAI         -4.6870    -1.5400     3.8290 ha         1 BK4       0.109000
     40 HAJ         -6.3590    -0.6900     5.4360 ha         1 BK4       0.122000
     41 HAK         -1.2780     1.5060     5.7810 ha         1 BK4       0.116000
     42 HAX          3.9150    -0.0010     3.1230 h1         1 BK4       0.056700
     43 CAX          3.2810     0.0000     4.0020 c3         1 BK4      -0.032000
     44 OAO         -7.1840     0.7990     7.3890 os         1 BK4      -0.308900
@<TRIPOS>BOND
     1     1     2 ar  
     2     1     6 ar  
     3     2     3 ar  
     4     2    24 1   
     5     3     4 ar  
     6     4     5 ar  
     7     4    23 1   
     8     5     6 ar  
     9     5    20 1   
    10     6    10 1   
    11     7    25 1   
    12     7    26 1   
    13     7    27 1   
    14     7    44 1   
    15     8    28 1   
    16     8    29 1   
    17     8    30 1   
    18     8    43 1   
    19     9    31 1   
    20     9    32 1   
    21     9    33 1   
    22     9    43 1   
    23    10    34 1   
    24    10    35 1   
    25    11    13 ar  
    26    11    18 ar  
    27    11    36 1   
    28    12    14 ar  
    29    12    19 ar  
    30    12    37 1   
    31    13    22 ar  
    32    13    38 1   
    33    14    21 ar  
    34    14    39 1   
    35    15    18 ar  
    36    15    21 ar  
    37    15    40 1   
    38    16    19 ar  
    39    16    22 ar  
    40    16    41 1   
    41    17    20 2   
    42    17    23 1   
    43    18    44 1   
    44    19    20 1   
    45    21    22 ar  
    46    23    43 1   
    47    42    43 1   
@<TRIPOS>SUBSTRUCTURE
     1 BK4         1 TEMP              0 ****  ****    0 ROOT
