@<TRIPOS>MOLECULE
molecule
   47    50     1     0     0
SMALL
bcc


@<TRIPOS>ATOM
      1 N1           0.0000     0.0000     0.0000 nb         1 BK5      -0.801000
      2 C2           1.3210     0.0000     0.0000 ca         1 BK5       0.730900
      3 N3           2.0310     0.0000     1.1060 nb         1 BK5      -0.781000
      4 C4           1.4350     0.0010     2.2980 ca         1 BK5       0.514800
      5 C5           0.0280     0.0010     2.3480 ca         1 BK5      -0.497500
      6 C6          -0.6860    -0.0000     1.1390 ca         1 BK5       0.786200
      7 CAA         -8.9100     1.5420     8.9080 c3         1 BK5      -0.093100
      8 CAB          3.5690     1.2510     4.8360 c3         1 BK5      -0.108100
      9 CAC          3.5700    -1.2470     4.8360 c3         1 BK5      -0.108100
     10 NAD         -2.0670    -0.0010     1.1330 nv         1 BK5      -1.073500
     11 CAE         -4.9610     1.6630     7.4340 ca         1 BK5      -0.206000
     12 CAF         -2.6810    -0.8560     3.7730 ca         1 BK5      -0.085000
     13 CAG         -3.6910     1.6890     6.9510 ca         1 BK5      -0.073000
     14 CAH         -3.9470    -0.8750     4.2620 ca         1 BK5      -0.137000
     15 CAJ         -5.6040    -0.0320     5.8530 ca         1 BK5      -0.170000
     16 CAK         -2.0280     0.8470     5.3660 ca         1 BK5      -0.072000
     17 CAL         -7.4500     1.6910     8.4750 c3         1 BK5       0.135400
     18 NAO          0.7800     0.0010     4.4550 nc         1 BK5      -0.491100
     19 CAQ         -5.9200     0.8020     6.8870 ca         1 BK5       0.150100
     20 CAR         -1.7100     0.0020     4.3170 ca         1 BK5      -0.109900
     21 CAT         -0.3350     0.0010     3.7650 cd         1 BK5       0.448500
     22 CAU         -4.3020    -0.0270     5.3280 ca         1 BK5       0.010000
     23 CAV         -3.3310     0.8420     5.8850 ca         1 BK5      -0.077000
     24 NAZ          1.8770     0.0010     3.5880 na         1 BK5      -0.026800
     25 H2           1.8400     0.0000    -0.9510 h5         1 BK5       0.061100
     26 HAA         -9.5600     1.7620     8.0690 hc         1 BK5       0.048367
     27 HAAA        -9.0860     0.5280     9.2450 hc         1 BK5       0.048367
     28 HAAB        -9.1190     2.2320     9.7170 hc         1 BK5       0.048367
     29 HAB          3.0270     1.1910     5.7720 hc         1 BK5       0.049033
     30 HABA         3.2570     2.1360     4.2940 hc         1 BK5       0.049033
     31 HABB         4.6320     1.3060     5.0370 hc         1 BK5       0.049033
     32 HAC          3.2810    -2.1290     4.2780 hc         1 BK5       0.049033
     33 HACA         4.6080    -1.3310     5.1320 hc         1 BK5       0.049033
     34 HACB         2.9480    -1.1590     5.7190 hc         1 BK5       0.049033
     35 HNAD        -2.5680     0.8470     1.3090 hn         1 BK5       0.444300
     36 HNAA        -2.5650    -0.8340     0.8890 hn         1 BK5       0.444300
     37 HAE         -5.2350     2.3150     8.2540 ha         1 BK5       0.136000
     38 HAF         -2.4150    -1.5110     2.9520 ha         1 BK5       0.138000
     39 HAG         -2.9580     2.3600     7.3840 ha         1 BK5       0.136000
     40 HAH         -4.6850    -1.5420     3.8320 ha         1 BK5       0.136000
     41 HAJ         -6.3560    -0.6930     5.4390 ha         1 BK5       0.148000
     42 HAK         -1.2760     1.5060     5.7830 ha         1 BK5       0.144000
     43 HAL         -6.8000     1.4550     9.3090 h1         1 BK5       0.034700
     44 HALA        -7.2700     2.7100     8.1540 h1         1 BK5       0.034700
     45 HAY          3.9170     0.0020     3.1220 h1         1 BK5       0.085700
     46 CAY          3.2830     0.0020     4.0000 c3         1 BK5       0.086000
     47 OAP         -7.1810     0.7960     7.3930 os         1 BK5      -0.330900
@<TRIPOS>BOND
     1     1     6 ar
     2     2     1 ar
     3     3     2 ar
     4     3     4 ar
     5     4    24 1
     6     4     5 ar
     7     5     6 ar
     8     5    21 1
     9     6    10 1
    10     9    46 1
    11    12    14 ar
    12    12    20 ar
    13    13    11 ar
    14    14    22 ar
    15    15    19 ar
    16    16    23 ar
    17    17     7 1
    18    17    47 1
    19    18    21 2
    20    19    11 ar
    21    19    47 1
    22    20    16 ar
    23    21    20 1
    24    22    15 ar
    25    22    23 ar
    26    23    13 ar
    27    46     8 1
    28    46    24 1
    29    24    18 1
    30     2    25 1
    31     7    26 1
    32     7    27 1
    33     7    28 1
    34     8    29 1
    35     8    30 1
    36     8    31 1
    37     9    32 1
    38     9    33 1
    39     9    34 1
    40    10    35 1
    41    10    36 1
    42    11    37 1
    43    12    38 1
    44    13    39 1
    45    14    40 1
    46    15    41 1
    47    16    42 1
    48    17    43 1
    49    17    44 1
    50    46    45 1
@<TRIPOS>SUBSTRUCTURE
     1 BK5         1 TEMP              0 ****  ****    0 ROOT
