@<TRIPOS>MOLECULE
BK5
   47    50     1     0     0
SMALL
bcc


@<TRIPOS>ATOM
      1 N1           0.0000     0.0000     0.0000 nb         1 BK5      -0.696000
      2 C2           1.3210     0.0000     0.0000 ca         1 BK5       0.676900
      3 N3           2.0310     0.0000     1.1060 nb         1 BK5      -0.656000
      4 C4           1.4350     0.0010     2.2980 ca         1 BK5       0.321800
      5 C5           0.0280     0.0010     2.3480 ca         1 BK5      -0.508500
      6 C6          -0.6860    -0.0000     1.1390 ca         1 BK5       0.622200
      7 CAA         -8.9100     1.5420     8.9080 c3         1 BK5       0.000900
      8 CAB          3.5690     1.2510     4.8360 c3         1 BK5      -0.013100
      9 CAC          3.5700    -1.2470     4.8360 c3         1 BK5      -0.013100
     10 NAD         -2.0670    -0.0010     1.1330 nv         1 BK5      -0.646500
     11 CAE         -4.9610     1.6630     7.4340 ca         1 BK5      -0.195000
     12 CAF         -2.6810    -0.8560     3.7730 ca         1 BK5      -0.077000
     13 CAG         -3.6910     1.6890     6.9510 ca         1 BK5      -0.039000
     14 CAH         -3.9470    -0.8750     4.2620 ca         1 BK5      -0.107000
     15 CAJ         -5.6040    -0.0320     5.8530 ca         1 BK5      -0.153000
     16 CAK         -2.0280     0.8470     5.3660 ca         1 BK5      -0.041000
     17 CAL         -7.4500     1.6910     8.4750 c3         1 BK5       0.201400
     18 NAO          0.7800     0.0010     4.4550 nc         1 BK5      -0.617100
     19 CAQ         -5.9200     0.8020     6.8870 ca         1 BK5       0.158100
     20 CAR         -1.7100     0.0020     4.3170 ca         1 BK5      -0.117900
     21 CAT         -0.3350     0.0010     3.7650 cd         1 BK5       0.487500
     22 CAU         -4.3020    -0.0270     5.3280 ca         1 BK5       0.013000
     23 CAV         -3.3310     0.8420     5.8850 ca         1 BK5      -0.079000
     24 NAZ          1.8770     0.0010     3.5880 na         1 BK5       0.378200
     25 H2           1.8400     0.0000    -0.9510 h5         1 BK5      -0.003900
     26 HAA         -9.5600     1.7620     8.0690 hc         1 BK5       0.011367
     27 HAAA        -9.0860     0.5280     9.2450 hc         1 BK5       0.011367
     28 HAAB        -9.1190     2.2320     9.7170 hc         1 BK5       0.011367
     29 HAB          3.0270     1.1910     5.7720 hc         1 BK5       0.016033
     30 HABA         3.2570     2.1360     4.2940 hc         1 BK5       0.016033
     31 HABB         4.6320     1.3060     5.0370 hc         1 BK5       0.016033
     32 HAC          3.2810    -2.1290     4.2780 hc         1 BK5       0.016033
     33 HACA         4.6080    -1.3310     5.1320 hc         1 BK5       0.016033
     34 HACB         2.9480    -1.1590     5.7190 hc         1 BK5       0.016033
     35 HNAD        -2.5680     0.8470     1.3090 hn         1 BK5       0.285800
     36 HNAA        -2.5650    -0.8340     0.8890 hn         1 BK5       0.285800
     37 HAE         -5.2350     2.3150     8.2540 ha         1 BK5       0.119000
     38 HAF         -2.4150    -1.5110     2.9520 ha         1 BK5       0.112000
     39 HAG         -2.9580     2.3600     7.3840 ha         1 BK5       0.105000
     40 HAH         -4.6850    -1.5420     3.8320 ha         1 BK5       0.109000
     41 HAJ         -6.3560    -0.6930     5.4390 ha         1 BK5       0.122000
     42 HAK         -1.2760     1.5060     5.7830 ha         1 BK5       0.116000
     43 HAL         -6.8000     1.4550     9.3090 h1         1 BK5      -0.000300
     44 HALA        -7.2700     2.7100     8.1540 h1         1 BK5      -0.000300
     45 HAY          3.9170     0.0020     3.1220 h1         1 BK5       0.055700
     46 CAY          3.2830     0.0020     4.0000 c3         1 BK5      -0.032000
     47 OAP         -7.1810     0.7960     7.3930 os         1 BK5      -0.307900
@<TRIPOS>BOND
     1     1     2 ar  
     2     1     6 ar  
     3     2     3 ar  
     4     2    25 1   
     5     3     4 ar  
     6     4     5 ar  
     7     4    24 1   
     8     5     6 ar  
     9     5    21 1   
    10     6    10 1   
    11     7    17 1   
    12     7    26 1   
    13     7    27 1   
    14     7    28 1   
    15     8    29 1   
    16     8    30 1   
    17     8    31 1   
    18     8    46 1   
    19     9    32 1   
    20     9    33 1   
    21     9    34 1   
    22     9    46 1   
    23    10    35 1   
    24    10    36 1   
    25    11    13 ar  
    26    11    19 ar  
    27    11    37 1   
    28    12    14 ar  
    29    12    20 ar  
    30    12    38 1   
    31    13    23 ar  
    32    13    39 1   
    33    14    22 ar  
    34    14    40 1   
    35    15    19 ar  
    36    15    22 ar  
    37    15    41 1   
    38    16    20 ar  
    39    16    23 ar  
    40    16    42 1   
    41    17    43 1   
    42    17    44 1   
    43    17    47 1   
    44    18    21 2   
    45    18    24 1   
    46    19    47 1   
    47    20    21 1   
    48    22    23 ar  
    49    24    46 1   
    50    45    46 1   
@<TRIPOS>SUBSTRUCTURE
     1 BK5         1 TEMP              0 ****  ****    0 ROOT
