@<TRIPOS>MOLECULE
molecule
   53    57     1     0     0
SMALL
bcc


@<TRIPOS>ATOM
      1 N1           0.0000     0.0000     0.0000 nb         1 BK6      -0.801000
      2 C2           1.3210     0.0000     0.0000 ca         1 BK6       0.730900
      3 N3           2.0310     0.0000     1.1060 nb         1 BK6      -0.779000
      4 C4           1.4330    -0.0000     2.2980 ca         1 BK6       0.512800
      5 C5           0.0260     0.0000     2.3480 ca         1 BK6      -0.496500
      6 C6          -0.6870    -0.0000     1.1380 ca         1 BK6       0.786200
      7 CAA         -7.4560     1.6880     8.4700 c3         1 BK6       0.128700
      8 NAB         -2.0690    -0.0010     1.1310 nv         1 BK6      -1.073500
      9 CAC         -4.9670     1.6600     7.4300 ca         1 BK6      -0.206000
     10 CAD         -2.6840    -0.8580     3.7700 ca         1 BK6      -0.085000
     11 CAE         -3.6950     1.6850     6.9490 ca         1 BK6      -0.073000
     12 CAF         -3.9510    -0.8760     4.2590 ca         1 BK6      -0.137000
     13 CAH         -5.6090    -0.0340     5.8490 ca         1 BK6      -0.168000
     14 CAI         -2.0320     0.8440     5.3640 ca         1 BK6      -0.072000
     15 CAJ          5.7380     2.8890     4.6590 c3         1 BK6       0.159300
     16 CAK          3.5530     3.5480     5.4710 c3         1 BK6       0.159300
     17 CAL          5.2680     1.4460     4.4560 c3         1 BK6      -0.072900
     18 CAM          3.0170     2.1260     5.2920 c3         1 BK6      -0.072900
     19 NAQ          0.7770    -0.0000     4.4550 nc         1 BK6      -0.491100
     20 NAR          4.9900     3.4970     5.7660 n7         1 BK6      -0.819200
     21 CAT         -5.9240     0.8000     6.8830 ca         1 BK6       0.147100
     22 CAU         -1.7130     0.0010     4.3160 ca         1 BK6      -0.109900
     23 CAW         -0.3380    -0.0000     3.7640 cd         1 BK6       0.448500
     24 CAX         -4.3060    -0.0290     5.3240 ca         1 BK6       0.009000
     25 CAY         -3.3350     0.8400     5.8830 ca         1 BK6      -0.076000
     26 CBB          3.7690     1.4430     4.1460 c3         1 BK6      -0.096700
     27 NBC          1.8740    -0.0000     3.5890 na         1 BK6      -0.028800
     28 H2           1.8410     0.0000    -0.9510 h5         1 BK6       0.061100
     29 HAA         -7.2760     2.7070     8.1500 h1         1 BK6       0.042033
     30 HAAA        -8.4890     1.5830     8.7780 h1         1 BK6       0.042033
     31 HAAB        -6.8050     1.4510     9.3030 h1         1 BK6       0.042033
     32 HNAB        -2.5670    -0.8330     0.8830 hn         1 BK6       0.444300
     33 HNAA        -2.5700     0.8470     1.3080 hn         1 BK6       0.444300
     34 HAC         -5.2410     2.3120     8.2500 ha         1 BK6       0.136000
     35 HAD         -2.4180    -1.5120     2.9490 ha         1 BK6       0.139000
     36 HAE         -2.9630     2.3570     7.3810 ha         1 BK6       0.136000
     37 HAF         -4.6880    -1.5430     3.8280 ha         1 BK6       0.136000
     38 HAH         -6.3600    -0.6960     5.4340 ha         1 BK6       0.148000
     39 HAI         -1.2800     1.5040     5.7820 ha         1 BK6       0.144000
     40 HAJ          5.5630     3.4550     3.7530 h1         1 BK6       0.031950
     41 HAJA         6.7960     2.8930     4.8950 h1         1 BK6       0.031950
     42 HAK          3.3930     4.1100     4.5590 h1         1 BK6       0.031950
     43 HAKA         3.0340     4.0280     6.2920 h1         1 BK6       0.031950
     44 HAL          5.8090     1.0040     3.6280 hc         1 BK6       0.053700
     45 HALA         5.4500     0.8770     5.3600 hc         1 BK6       0.053700
     46 HAM          1.9600     2.1660     5.0560 hc         1 BK6       0.053700
     47 HAMA         3.1680     1.5660     6.2070 hc         1 BK6       0.053700
     48 HAN          3.8760    -0.5100     3.2550 h1         1 BK6       0.072700
     49 HANA         3.3760    -0.5100     4.9520 h1         1 BK6       0.072700
     50 HNAR         5.3310     4.4240     5.9290 hn         1 BK6       0.352800
     51 HBB          3.5900     1.9840     3.2240 hc         1 BK6       0.063700
     52 CAN          3.2790     0.0010     4.0020 c3         1 BK6       0.085300
     53 OAS         -7.1850     0.7940     7.3890 os         1 BK6      -0.329900
@<TRIPOS>BOND
     1     1     6 ar
     2     2     1 ar
     3     3     2 ar
     4     3     4 ar
     5     4    27 1
     6     4     5 ar
     7     5     6 ar
     8     5    23 1
     9     6     8 1
    10     7    53 1
    11    10    12 ar
    12    10    22 ar
    13    11     9 ar
    14    12    24 ar
    15    13    21 ar
    16    14    25 ar
    17    15    17 1
    18    16    20 1
    19    16    18 1
    20    17    26 1
    21    18    26 1
    22    52    27 1
    23    19    23 2
    24    20    15 1
    25    21     9 ar
    26    21    53 1
    27    22    14 ar
    28    23    22 1
    29    24    13 ar
    30    24    25 ar
    31    25    11 ar
    32    26    52 1
    33    27    19 1
    34     2    28 1
    35     7    29 1
    36     7    30 1
    37     7    31 1
    38     8    32 1
    39     8    33 1
    40     9    34 1
    41    10    35 1
    42    11    36 1
    43    12    37 1
    44    13    38 1
    45    14    39 1
    46    15    40 1
    47    15    41 1
    48    16    42 1
    49    16    43 1
    50    17    44 1
    51    17    45 1
    52    18    46 1
    53    18    47 1
    54    52    48 1
    55    52    49 1
    56    20    50 1
    57    26    51 1
@<TRIPOS>SUBSTRUCTURE
     1 BK6         1 TEMP              0 ****  ****    0 ROOT
