@<TRIPOS>MOLECULE
BK6
   53    57     1     0     0
SMALL
bcc


@<TRIPOS>ATOM
      1 N1           0.0000     0.0000     0.0000 nb         1 BK6      -0.696000
      2 C2           1.3210     0.0000     0.0000 ca         1 BK6       0.676900
      3 N3           2.0310     0.0000     1.1060 nb         1 BK6      -0.655000
      4 C4           1.4330    -0.0000     2.2980 ca         1 BK6       0.318800
      5 C5           0.0260     0.0000     2.3480 ca         1 BK6      -0.507500
      6 C6          -0.6870    -0.0000     1.1380 ca         1 BK6       0.622200
      7 CAA         -7.4560     1.6880     8.4700 c3         1 BK6       0.243700
      8 NAB         -2.0690    -0.0010     1.1310 nv         1 BK6      -0.646500
      9 CAC         -4.9670     1.6600     7.4300 ca         1 BK6      -0.195000
     10 CAD         -2.6840    -0.8580     3.7700 ca         1 BK6      -0.077000
     11 CAE         -3.6950     1.6850     6.9490 ca         1 BK6      -0.039000
     12 CAF         -3.9510    -0.8760     4.2590 ca         1 BK6      -0.106000
     13 CAH         -5.6090    -0.0340     5.8490 ca         1 BK6      -0.151000
     14 CAI         -2.0320     0.8440     5.3640 ca         1 BK6      -0.042000
     15 CAJ          5.7380     2.8890     4.6590 c3         1 BK6       0.148800
     16 CAK          3.5530     3.5480     5.4710 c3         1 BK6       0.148800
     17 CAL          5.2680     1.4460     4.4560 c3         1 BK6      -0.024900
     18 CAM          3.0170     2.1260     5.2920 c3         1 BK6      -0.024900
     19 NAQ          0.7770    -0.0000     4.4550 nc         1 BK6      -0.620100
     20 NAR          4.9900     3.4970     5.7660 n7         1 BK6      -0.579200
     21 CAT         -5.9240     0.8000     6.8830 ca         1 BK6       0.155100
     22 CAU         -1.7130     0.0010     4.3160 ca         1 BK6      -0.117900
     23 CAW         -0.3380    -0.0000     3.7640 cd         1 BK6       0.488500
     24 CAX         -4.3060    -0.0290     5.3240 ca         1 BK6       0.013000
     25 CAY         -3.3350     0.8400     5.8830 ca         1 BK6      -0.079000
     26 CBB          3.7690     1.4430     4.1460 c3         1 BK6      -0.074700
     27 NBC          1.8740    -0.0000     3.5890 na         1 BK6       0.378200
     28 H2           1.8410     0.0000    -0.9510 h5         1 BK6      -0.002900
     29 HAA         -7.2760     2.7070     8.1500 h1         1 BK6      -0.002633
     30 HAAA        -8.4890     1.5830     8.7780 h1         1 BK6      -0.002633
     31 HAAB        -6.8050     1.4510     9.3030 h1         1 BK6      -0.002633
     32 HNAB        -2.5670    -0.8330     0.8830 hn         1 BK6       0.286300
     33 HNAA        -2.5700     0.8470     1.3080 hn         1 BK6       0.286300
     34 HAC         -5.2410     2.3120     8.2500 ha         1 BK6       0.120000
     35 HAD         -2.4180    -1.5120     2.9490 ha         1 BK6       0.113000
     36 HAE         -2.9630     2.3570     7.3810 ha         1 BK6       0.106000
     37 HAF         -4.6880    -1.5430     3.8280 ha         1 BK6       0.109000
     38 HAH         -6.3600    -0.6960     5.4340 ha         1 BK6       0.122000
     39 HAI         -1.2800     1.5040     5.7820 ha         1 BK6       0.115000
     40 HAJ          5.5630     3.4550     3.7530 h1         1 BK6       0.005450
     41 HAJA         6.7960     2.8930     4.8950 h1         1 BK6       0.005450
     42 HAK          3.3930     4.1100     4.5590 h1         1 BK6       0.005450
     43 HAKA         3.0340     4.0280     6.2920 h1         1 BK6       0.005450
     44 HAL          5.8090     1.0040     3.6280 hc         1 BK6       0.026450
     45 HALA         5.4500     0.8770     5.3600 hc         1 BK6       0.026450
     46 HAM          1.9600     2.1660     5.0560 hc         1 BK6       0.026450
     47 HAMA         3.1680     1.5660     6.2070 hc         1 BK6       0.026450
     48 HAN          3.8760    -0.5100     3.2550 h1         1 BK6       0.042700
     49 HANA         3.3760    -0.5100     4.9520 h1         1 BK6       0.042700
     50 HNAR         5.3310     4.4240     5.9290 hn         1 BK6       0.250800
     51 HBB          3.5900     1.9840     3.2240 hc         1 BK6       0.038700
     52 CAN          3.2790     0.0010     4.0020 c3         1 BK6      -0.002700
     53 OAS         -7.1850     0.7940     7.3890 os         1 BK6      -0.308900
@<TRIPOS>BOND
     1     1     2 ar  
     2     1     6 ar  
     3     2     3 ar  
     4     2    28 1   
     5     3     4 ar  
     6     4     5 ar  
     7     4    27 1   
     8     5     6 ar  
     9     5    23 1   
    10     6     8 1   
    11     7    29 1   
    12     7    30 1   
    13     7    31 1   
    14     7    53 1   
    15     8    32 1   
    16     8    33 1   
    17     9    11 ar  
    18     9    21 ar  
    19     9    34 1   
    20    10    12 ar  
    21    10    22 ar  
    22    10    35 1   
    23    11    25 ar  
    24    11    36 1   
    25    12    24 ar  
    26    12    37 1   
    27    13    21 ar  
    28    13    24 ar  
    29    13    38 1   
    30    14    22 ar  
    31    14    25 ar  
    32    14    39 1   
    33    15    17 1   
    34    15    20 1   
    35    15    40 1   
    36    15    41 1   
    37    16    18 1   
    38    16    20 1   
    39    16    42 1   
    40    16    43 1   
    41    17    26 1   
    42    17    44 1   
    43    17    45 1   
    44    18    26 1   
    45    18    46 1   
    46    18    47 1   
    47    19    23 2   
    48    19    27 1   
    49    20    50 1   
    50    21    53 1   
    51    22    23 1   
    52    24    25 ar  
    53    26    51 1   
    54    26    52 1   
    55    27    52 1   
    56    48    52 1   
    57    49    52 1   
@<TRIPOS>SUBSTRUCTURE
     1 BK6         1 TEMP              0 ****  ****    0 ROOT
