@<TRIPOS>MOLECULE
BK7
   56    60     1     0     0
SMALL
bcc


@<TRIPOS>ATOM
      1 N1           0.0000     0.0000     0.0000 nb         1 BK7      -0.696000
      2 C2           1.3210     0.0000     0.0000 ca         1 BK7       0.676900
      3 N3           2.0320     0.0000     1.1070 nb         1 BK7      -0.656000
      4 C4           1.4330     0.0020     2.2980 ca         1 BK7       0.320800
      5 C5           0.0270     0.0030     2.3470 ca         1 BK7      -0.508500
      6 C6          -0.6870     0.0020     1.1380 ca         1 BK7       0.623200
      7 CAA         -8.9140     1.5600     8.9000 c3         1 BK7       0.000900
      8 NAB         -2.0680     0.0030     1.1300 nv         1 BK7      -0.646500
      9 CAC         -4.9640     1.6750     7.4280 ca         1 BK7      -0.195000
     10 CAD         -2.6840    -0.8490     3.7710 ca         1 BK7      -0.077000
     11 CAE         -3.6930     1.6990     6.9470 ca         1 BK7      -0.038000
     12 CAF         -3.9500    -0.8660     4.2600 ca         1 BK7      -0.107000
     13 CAH         -5.6070    -0.0200     5.8490 ca         1 BK7      -0.153000
     14 CAI         -2.0300     0.8540     5.3640 ca         1 BK7      -0.041000
     15 CAJ         -7.4530     1.7060     8.4690 c3         1 BK7       0.201400
     16 CAK          5.7440     2.8890     4.6540 c3         1 BK7       0.148800
     17 CAL          3.5590     3.5530     5.4640 c3         1 BK7       0.148800
     18 CAM          5.2710     1.4460     4.4520 c3         1 BK7      -0.024900
     19 CAN          3.0210     2.1300     5.2880 c3         1 BK7      -0.024900
     20 NAR          0.7780     0.0060     4.4560 nc         1 BK7      -0.620100
     21 NAS          4.9970     3.5000     5.7600 n7         1 BK7      -0.579200
     22 CAU         -5.9230     0.8150     6.8830 ca         1 BK7       0.158100
     23 CAV         -1.7120     0.0080     4.3160 ca         1 BK7      -0.118900
     24 CAX         -0.3380     0.0050     3.7640 cd         1 BK7       0.489500
     25 CAY         -4.3050    -0.0170     5.3240 ca         1 BK7       0.014000
     26 CAZ         -3.3330     0.8520     5.8820 ca         1 BK7      -0.079000
     27 CBC          3.7720     1.4450     4.1430 c3         1 BK7      -0.074700
     28 NBD          1.8750     0.0030     3.5880 na         1 BK7       0.377200
     29 H2           1.8400    -0.0020    -0.9510 h5         1 BK7      -0.002900
     30 HAA         -9.5620     1.7960     8.0650 hc         1 BK7       0.011367
     31 HAAA        -9.1180     2.2390     9.7190 hc         1 BK7       0.011367
     32 HAAB        -9.0950     0.5410     9.2220 hc         1 BK7       0.011367
     33 HNAB        -2.5670    -0.8290     0.8840 hn         1 BK7       0.286300
     34 HNAA        -2.5680     0.8520     1.3070 hn         1 BK7       0.286300
     35 HAC         -5.2370     2.3290     8.2480 ha         1 BK7       0.119000
     36 HAD         -2.4190    -1.5050     2.9510 ha         1 BK7       0.112000
     37 HAE         -2.9600     2.3710     7.3790 ha         1 BK7       0.106000
     38 HAF         -4.6870    -1.5320     3.8300 ha         1 BK7       0.109000
     39 HAH         -6.3590    -0.6820     5.4350 ha         1 BK7       0.122000
     40 HAI         -1.2780     1.5130     5.7800 ha         1 BK7       0.115000
     41 HAJ         -7.2720     2.7250     8.1470 h1         1 BK7      -0.000300
     42 HAJA        -6.8160     1.4760     9.3140 h1         1 BK7      -0.000300
     43 HAK          5.5700     3.4540     3.7460 h1         1 BK7       0.005450
     44 HAKA         6.8010     2.8910     4.8900 h1         1 BK7       0.005450
     45 HAL          3.4000     4.1130     4.5510 h1         1 BK7       0.005450
     46 HALA         3.0410     4.0340     6.2840 h1         1 BK7       0.005450
     47 HAM          5.4530     0.8770     5.3560 hc         1 BK7       0.026450
     48 HAMA         5.8110     1.0020     3.6240 hc         1 BK7       0.026450
     49 HAN          1.9640     2.1710     5.0520 hc         1 BK7       0.026450
     50 HANA         3.1710     1.5720     6.2040 hc         1 BK7       0.026450
     51 HAO          3.3770    -0.5070     4.9520 h1         1 BK7       0.042700
     52 HAOA         3.8760    -0.5100     3.2550 h1         1 BK7       0.042700
     53 HNAS         5.3380     4.4270     5.9210 hn         1 BK7       0.250800
     54 HBC          3.5940     1.9850     3.2210 hc         1 BK7       0.038700
     55 CAO          3.2810     0.0020     4.0010 c3         1 BK7      -0.001700
     56 OAT         -7.1840     0.8100     7.3880 os         1 BK7      -0.305900
@<TRIPOS>BOND
     1     1     2 ar  
     2     1     6 ar  
     3     2     3 ar  
     4     2    29 1   
     5     3     4 ar  
     6     4     5 ar  
     7     4    28 1   
     8     5     6 ar  
     9     5    24 1   
    10     6     8 1   
    11     7    15 1   
    12     7    30 1   
    13     7    31 1   
    14     7    32 1   
    15     8    33 1   
    16     8    34 1   
    17     9    11 ar  
    18     9    22 ar  
    19     9    35 1   
    20    10    12 ar  
    21    10    23 ar  
    22    10    36 1   
    23    11    26 ar  
    24    11    37 1   
    25    12    25 ar  
    26    12    38 1   
    27    13    22 ar  
    28    13    25 ar  
    29    13    39 1   
    30    14    23 ar  
    31    14    26 ar  
    32    14    40 1   
    33    15    41 1   
    34    15    42 1   
    35    15    56 1   
    36    16    18 1   
    37    16    21 1   
    38    16    43 1   
    39    16    44 1   
    40    17    19 1   
    41    17    21 1   
    42    17    45 1   
    43    17    46 1   
    44    18    27 1   
    45    18    47 1   
    46    18    48 1   
    47    19    27 1   
    48    19    49 1   
    49    19    50 1   
    50    20    24 2   
    51    20    28 1   
    52    21    53 1   
    53    22    56 1   
    54    23    24 1   
    55    25    26 ar  
    56    27    54 1   
    57    27    55 1   
    58    28    55 1   
    59    51    55 1   
    60    52    55 1   
@<TRIPOS>SUBSTRUCTURE
     1 BK7         1 TEMP              0 ****  ****    0 ROOT
