@<TRIPOS>MOLECULE
BK8
   57    61     1     0     0
SMALL
bcc


@<TRIPOS>ATOM
      1 N2           0.0000     0.0000     0.0000 nv         1 BK8      -0.501600
      2 C21          1.3860     0.0000     0.0000 cc         1 BK8      -0.146100
      3 C20          2.2050     0.0000     1.1210 ca         1 BK8      -0.193000
      4 C10          1.9840     0.0000     2.5640 cp         1 BK8       0.045000
      5 C9           0.6110    -0.0000     3.1180 cp         1 BK8      -0.043000
      6 C22         -0.3290     0.9360     2.6510 ca         1 BK8      -0.077000
      7 C23         -1.5940     0.9550     3.1440 ca         1 BK8      -0.110000
      8 C4          -1.9780     0.0320     4.1340 ca         1 BK8       0.006000
      9 C3          -3.2800     0.0390     4.6610 ca         1 BK8      -0.150000
     10 C8           0.2620    -0.9240     4.0870 ca         1 BK8      -0.069000
     11 C5          -1.0390    -0.9160     4.6130 ca         1 BK8      -0.073000
     12 C6          -1.4270    -1.8370     5.6040 ca         1 BK8      -0.043000
     13 C7          -2.6940    -1.8110     6.0940 ca         1 BK8      -0.195000
     14 C2          -3.6240    -0.8730     5.6320 ca         1 BK8       0.152100
     15 O           -4.8840    -0.8710     6.1400 os         1 BK8      -0.307900
     16 C1          -5.1840    -1.8510     7.1370 c3         1 BK8       0.201400
     17 C           -6.6380    -1.6940     7.5850 c3         1 BK8       0.000900
     18 N3           2.1800    -0.0060    -1.0850 na         1 BK8       0.517800
     19 N4           3.5240    -0.0040    -0.6940 nc         1 BK8      -0.439400
     20 C19          3.5910     0.0000     0.6260 ca         1 BK8       0.004000
     21 C18          4.6430    -0.0000     1.5660 ca         1 BK8      -0.092000
     22 C12          4.3800    -0.0010     2.8950 ca         1 BK8      -0.059300
     23 C11          3.0830     0.0000     3.4030 ca         1 BK8      -0.115000
     24 C13          5.5350    -0.0010     3.8630 c3         1 BK8       0.207100
     25 N            5.9110     1.3840     4.1780 n3         1 BK8      -0.538600
     26 C17          6.8690     1.4290     5.2910 c3         1 BK8       0.144300
     27 C16          7.1730     2.8880     5.6390 c3         1 BK8       0.147300
     28 N1           7.7140     3.5690     4.4550 n7         1 BK8      -0.586200
     29 C15          6.7550     3.5230     3.3410 c3         1 BK8       0.147300
     30 C14          6.4510     2.0650     2.9930 c3         1 BK8       0.144300
     31 H1          -0.5000    -0.8530     0.1550 hn         1 BK8       0.277800
     32 H2          -0.5000     0.8390    -0.2180 hn         1 BK8       0.277800
     33 H3          -0.0380     1.6560     1.8970 ha         1 BK8       0.110000
     34 H4          -2.3080     1.6820     2.7740 ha         1 BK8       0.106000
     35 H5          -4.0070     0.7620     4.3100 ha         1 BK8       0.121000
     36 H6           0.9440    -1.7260     4.3410 ha         1 BK8       0.112000
     37 H7          -0.7180    -2.5690     5.9710 ha         1 BK8       0.104000
     38 H8          -2.9860    -2.5200     6.8590 ha         1 BK8       0.118000
     39 H9          -5.0380    -2.8420     6.7250 h1         1 BK8      -0.000800
     40 H10         -4.5270    -1.7130     7.9880 h1         1 BK8      -0.000800
     41 H11         -6.8650    -2.4360     8.3410 hc         1 BK8       0.010700
     42 H12         -7.2950    -1.8320     6.7350 hc         1 BK8       0.010700
     43 H13         -6.7840    -0.7030     7.9970 hc         1 BK8       0.010700
     44 H14          1.8580    -0.0110    -2.0330 hn         1 BK8       0.138700
     45 H15          5.6710    -0.0010     1.2230 ha         1 BK8       0.116000
     46 H16          2.9330    -0.0000     4.4760 ha         1 BK8       0.116000
     47 H17          6.3790    -0.5120     3.4170 h1         1 BK8       0.012700
     48 H18          5.2440    -0.5120     4.7730 h1         1 BK8       0.012700
     49 H20          7.7850     0.9300     4.9980 h1         1 BK8       0.017950
     50 H21          6.4410     0.9340     6.1540 h1         1 BK8       0.017950
     51 H22          6.2610     3.3820     5.9530 h1         1 BK8       0.010450
     52 H23          7.9020     2.9230     6.4390 h1         1 BK8       0.010450
     53 H24          7.9170     4.5220     4.6810 hn         1 BK8       0.251800
     54 H26          7.1820     4.0180     2.4780 h1         1 BK8       0.010450
     55 H27          5.8390     4.0230     3.6340 h1         1 BK8       0.010450
     56 H28          5.7200     2.0300     2.1940 h1         1 BK8       0.017950
     57 H29          7.3620     1.5720     2.6780 h1         1 BK8       0.017950
@<TRIPOS>BOND
     1     1     2 1   
     2     1    31 1   
     3     1    32 1   
     4     2     3 2   
     5     2    18 1   
     6     3     4 ar  
     7     3    20 ar  
     8     4     5 1   
     9     4    23 ar  
    10     5     6 ar  
    11     5    10 ar  
    12     6     7 ar  
    13     6    33 1   
    14     7     8 ar  
    15     7    34 1   
    16     8     9 ar  
    17     8    11 ar  
    18     9    14 ar  
    19     9    35 1   
    20    10    11 ar  
    21    10    36 1   
    22    11    12 ar  
    23    12    13 ar  
    24    12    37 1   
    25    13    14 ar  
    26    13    38 1   
    27    14    15 1   
    28    15    16 1   
    29    16    17 1   
    30    16    39 1   
    31    16    40 1   
    32    17    41 1   
    33    17    42 1   
    34    17    43 1   
    35    18    19 1   
    36    18    44 1   
    37    19    20 2   
    38    20    21 ar  
    39    21    22 ar  
    40    21    45 1   
    41    22    23 ar  
    42    22    24 1   
    43    23    46 1   
    44    24    25 1   
    45    24    47 1   
    46    24    48 1   
    47    25    26 1   
    48    25    30 1   
    49    26    27 1   
    50    26    49 1   
    51    26    50 1   
    52    27    28 1   
    53    27    51 1   
    54    27    52 1   
    55    28    29 1   
    56    28    53 1   
    57    29    30 1   
    58    29    54 1   
    59    29    55 1   
    60    30    56 1   
    61    30    57 1   
@<TRIPOS>SUBSTRUCTURE
     1 BK8         1 TEMP              0 ****  ****    0 ROOT
