@<TRIPOS>MOLECULE
BK9
   23    24     1     0     0
SMALL
bcc


@<TRIPOS>ATOM
      1 N1          0.0560   -0.0020   -0.1530 nb        1 BK9     -0.785000
      2 C2          1.4340   -0.0020   -0.0280 ca        1 BK9      0.667900
      3 N3          2.1600   -0.0020    1.0850 nb        1 BK9     -0.706000
      4 C4          1.4560   -0.0010    2.2810 ca        1 BK9      0.428600
      5 C5          0.0260    0.0000    2.3000 ca        1 BK9     -0.273600
      6 C6         -0.6240   -0.0000    1.0010 ca        1 BK9      0.685600
      7 CAA        -4.1710    0.0010    0.1660 c3        1 BK9     -0.105100
      8 CAB         1.4330    0.0000    4.7110 ca        1 BK9     -0.100000
      9 CAC         0.0210    0.0020    4.7130 ca        1 BK9     -0.147000
     10 CAE         2.1430   -0.0010    3.5330 ca        1 BK9     -0.183300
     11 CAF        -0.6740    0.0010    3.5240 ca        1 BK9     -0.071000
     12 CAG        -2.7060   -0.0000   -0.2030 c3        1 BK9      0.137400
     13 OAJ        -1.9940    0.0010    1.0520 os        1 BK9     -0.448100
     14 H2          1.9820   -0.0030   -0.9940 h5        1 BK9      0.054100
     15 HA1        -4.7780   -0.0010   -0.7700 hc        1 BK9      0.050033
     16 HA2        -4.4250   -0.9030    0.7690 hc        1 BK9      0.050033
     17 HA3        -4.4250    0.9070    0.7660 hc        1 BK9      0.050033
     18 HAB         1.9660    0.0010    5.6740 ha        1 BK9      0.137000
     19 HAC        -0.5160    0.0020    5.6730 ha        1 BK9      0.138000
     20 HAE         3.2440   -0.0020    3.5370 ha        1 BK9      0.154000
     21 HAF        -1.7750    0.0020    3.5040 ha        1 BK9      0.151000
     22 HAG1       -2.4270    0.9160   -0.7850 h1        1 BK9      0.056700
     23 HAG2       -2.4280   -0.9180   -0.7830 h1        1 BK9      0.056700
@<TRIPOS>BOND
     1    1    2 ar  
     2    1    6 ar  
     3    2    3 ar  
     4    2   14 1   
     5    3    4 ar  
     6    4    5 ar  
     7    4   10 ar  
     8    5    6 ar  
     9    5   11 ar  
    10    6   13 1   
    11    7   12 1   
    12    7   15 1   
    13    7   16 1   
    14    7   17 1   
    15    8    9 ar  
    16    8   10 ar  
    17    8   18 1   
    18    9   11 ar  
    19    9   19 1   
    20   10   20 1   
    21   11   21 1   
    22   12   13 1   
    23   12   22 1   
    24   12   23 1   
@<TRIPOS>SUBSTRUCTURE
     1 BK9         1 TEMP              0 ****  ****    0 ROOT
