@<TRIPOS>MOLECULE
molecule
   23    24     1     0     0
SMALL
bcc


@<TRIPOS>ATOM
      1 N1           0.0000     0.0000     0.0000 nb         1 BK9      -0.841000
      2 C2           1.3240     0.0000     0.0000 ca         1 BK9       0.720900
      3 N3           2.0370     0.0000     1.1010 nb         1 BK9      -0.758000
      4 C4           1.4360     0.0000     2.2990 ca         1 BK9       0.468600
      5 C5           0.0200     0.0010     2.3500 ca         1 BK9      -0.292600
      6 C6          -0.6920     0.0000     1.1290 ca         1 BK9       0.716600
      7 CAA         -4.1980    -0.0010     0.0170 c3         1 BK9      -0.098100
      8 CAB          1.5030     0.0000     4.6880 ca         1 BK9      -0.093000
      9 CAC          0.1110    -0.0000     4.7360 ca         1 BK9      -0.150000
     10 CAE          2.1650    -0.0000     3.4970 ca         1 BK9      -0.185300
     11 CAF         -0.6290    -0.0000     3.5910 ca         1 BK9      -0.072000
     12 CAG         -2.6790     0.0000    -0.1670 c3         1 BK9       0.142400
     13 OAJ         -2.0450     0.0000     1.1140 os         1 BK9      -0.434100
     14 H2           1.8420    -0.0000    -0.9520 h5         1 BK9       0.058100
     15 HA1         -4.4960     0.8830     0.5670 hc         1 BK9       0.048367
     16 HA2         -4.4950    -0.8860     0.5670 hc         1 BK9       0.048367
     17 HA3         -4.6790    -0.0010    -0.9540 hc         1 BK9       0.048367
     18 HAB          2.0680    -0.0000     5.6120 ha         1 BK9       0.135000
     19 HAC         -0.3900    -0.0000     5.6960 ha         1 BK9       0.134000
     20 HAE          3.2480    -0.0000     3.4760 ha         1 BK9       0.153000
     21 HAF         -1.7110     0.0000     3.6410 ha         1 BK9       0.147000
     22 HAG1        -2.3820     0.8850    -0.7170 h1         1 BK9       0.051700
     23 HAG2        -2.3810    -0.8840    -0.7170 h1         1 BK9       0.051700
@<TRIPOS>BOND
     1     2     1 ar
     2     1     6 ar
     3     2     3 ar
     4     2    14 1
     5     3     4 ar
     6     4     5 ar
     7     4    10 ar
     8     6     5 ar
     9     5    11 ar
    10     6    13 1
    11    12     7 1
    12     7    15 1
    13     7    16 1
    14     7    17 1
    15    10     8 ar
    16     8     9 ar
    17     8    18 1
    18    11     9 ar
    19     9    19 1
    20    10    20 1
    21    11    21 1
    22    13    12 1
    23    12    22 1
    24    12    23 1
@<TRIPOS>SUBSTRUCTURE
     1 BK9         1 TEMP              0 ****  ****    0 ROOT
