@<TRIPOS>MOLECULE
molecule
   21    20     1     0     0
SMALL
bcc


@<TRIPOS>ATOM
      1 O3           0.0000     0.0000     0.0000 o          1 BKA      -0.475100
      2 C3           1.2070     0.0000     0.0000 c          1 BKA       0.546100
      3 C2           1.9620     0.0000     1.3050 c3         1 BKA      -0.282400
      4 C1           0.9820    -0.0010     2.4500 c          1 BKA       0.888600
      5 O1          -0.2050    -0.0010     2.2300 o          1 BKA      -0.834800
      6 O2           1.4310    -0.0010     3.7150 o          1 BKA      -0.834800
      7 C4           1.9590    -0.0050    -1.3060 c3         1 BKA      -0.197400
      8 C5           0.9640    -0.0110    -2.4680 c3         1 BKA      -0.070400
      9 C6           1.7290    -0.0160    -3.7940 c3         1 BKA      -0.087400
     10 C7           0.7340    -0.0210    -4.9560 c3         1 BKA      -0.091100
     11 H2           2.5840     0.8850     1.3620 hc         1 BKA       0.048700
     12 H2A          2.5850    -0.8840     1.3610 hc         1 BKA       0.048700
     13 H4           2.5820     0.8800    -1.3670 hc         1 BKA       0.046200
     14 H4A          2.5830    -0.8890    -1.3600 hc         1 BKA       0.046200
     15 H5           0.3420    -0.8950    -2.4070 hc         1 BKA       0.052700
     16 H5A          0.3410     0.8740    -2.4140 hc         1 BKA       0.052700
     17 H6           2.3520    -0.9000    -3.8480 hc         1 BKA       0.031700
     18 H6A          2.3510     0.8690    -3.8550 hc         1 BKA       0.031700
     19 H7           0.1100     0.8630    -4.9020 hc         1 BKA       0.027033
     20 H7A          0.1120    -0.9060    -4.8950 hc         1 BKA       0.027033
     21 H7B          1.2750    -0.0250    -5.8950 hc         1 BKA       0.027033
@<TRIPOS>BOND
     1     1     2 2
     2     7     2 1
     3     2     3 1
     4     3     4 1
     5     3    11 1
     6     3    12 1
     7     4     5 1
     8     4     6 1
     9     7     8 1
    10     7    13 1
    11     7    14 1
    12     9     8 1
    13     8    15 1
    14     8    16 1
    15     9    10 1
    16     9    17 1
    17     9    18 1
    18    10    19 1
    19    10    20 1
    20    10    21 1
@<TRIPOS>SUBSTRUCTURE
     1 BKA         1 TEMP              0 ****  ****    0 ROOT
