@<TRIPOS>MOLECULE
BKA
   21    20     1     0     0
SMALL
bcc


@<TRIPOS>ATOM
      1 O3          0.1890    1.6190   -0.0570 o         1 BKA     -0.608100
      2 C3          1.1250    0.8090    0.0520 c         1 BKA      0.600100
      3 C2          1.7720    0.4950    1.3570 c3        1 BKA     -0.312400
      4 C1          1.5220   -0.9590    1.8360 c         1 BKA      0.924600
      5 O1          1.7870   -1.9100    1.0460 o         1 BKA     -0.832300
      6 O2          1.1070   -1.1070    3.0160 o         1 BKA     -0.832300
      7 C4          1.6910    0.0830   -1.1360 c3        1 BKA     -0.204400
      8 C5          0.9480    0.3700   -2.4190 c3        1 BKA     -0.067400
      9 C6          1.5410   -0.3980   -3.5800 c3        1 BKA     -0.080400
     10 C7          0.7980   -0.1270   -4.8630 c3        1 BKA     -0.088100
     11 H2          1.4020    1.1950    2.1480 hc        1 BKA      0.051200
     12 H2A         2.8800    0.6140    1.2550 hc        1 BKA      0.051200
     13 H4          2.7710    0.3680   -1.2420 hc        1 BKA      0.088700
     14 H4A         1.6620   -1.0200   -0.8890 hc        1 BKA      0.088700
     15 H5          0.9760    1.4710   -2.6350 hc        1 BKA      0.040200
     16 H5A        -0.1320    0.0930   -2.2900 hc        1 BKA      0.040200
     17 H6          1.5130   -1.4960   -3.3520 hc        1 BKA      0.036200
     18 H6A         2.6200   -0.1150   -3.7040 hc        1 BKA      0.036200
     19 H7         -0.2740   -0.4280   -4.7660 hc        1 BKA      0.023033
     20 H7A         0.8320    0.9600   -5.1170 hc        1 BKA      0.023033
     21 H7B         1.2500   -0.7020   -5.7070 hc        1 BKA      0.023033
@<TRIPOS>BOND
     1    1    2 2   
     2    2    3 1   
     3    2    7 1   
     4    3    4 1   
     5    3   11 1   
     6    3   12 1   
     7    4    5 1   
     8    4    6 1   
     9    7    8 1   
    10    7   13 1   
    11    7   14 1   
    12    8    9 1   
    13    8   15 1   
    14    8   16 1   
    15    9   10 1   
    16    9   17 1   
    17    9   18 1   
    18   10   19 1   
    19   10   20 1   
    20   10   21 1   
@<TRIPOS>SUBSTRUCTURE
     1 BKA         1 TEMP              0 ****  ****    0 ROOT
