@<TRIPOS>MOLECULE
molecule
   47    51     1     0     0
SMALL
bcc


@<TRIPOS>ATOM
      1 C14          0.0000     0.0000     0.0000 cx         1 BKD      -0.123400
      2 C5           5.0080     0.3590    -3.9130 c3         1 BKD       0.114000
      3 C6           3.9290     0.4600    -2.8290 c3         1 BKD      -0.034100
      4 C7           4.4180    -0.2430    -1.5870 cc         1 BKD      -0.139600
      5 C8           5.4350    -1.1380    -1.5640 cd         1 BKD      -0.342600
      6 C9           5.5960    -1.5810    -0.2420 cd         1 BKD       0.372800
      7 C12          2.2360     1.2950    -0.4080 c3         1 BKD       0.316300
      8 C13          1.5300     0.0000     0.0000 cx         1 BKD      -0.181700
      9 C1           5.7620    -3.2290    -5.0470 c3         1 BKD      -0.170100
     10 C15          0.7650     0.0000     1.3250 cx         1 BKD      -0.123400
     11 C16          6.5940    -2.5680     0.2340 ca         1 BKD      -0.044500
     12 C17          7.9220    -2.4670    -0.1610 ca         1 BKD      -0.154000
     13 C18          8.8540    -3.3900     0.2850 ca         1 BKD      -0.109000
     14 C19          8.4830    -4.4190     1.1230 ca         1 BKD      -0.151000
     15 C2           5.3350    -1.7850    -5.0590 c          1 BKD       0.665100
     16 C20          7.1590    -4.5440     1.5350 ca         1 BKD      -0.040200
     17 C21          6.2060    -3.6090     1.0950 ca         1 BKD      -0.086800
     18 C22          4.9360    -4.0070     1.7000 cc         1 BKD      -0.176200
     19 C23          5.1800    -5.1010     2.4420 cd         1 BKD      -0.118100
     20 C26          6.2260    -1.5470    -2.7830 c3         1 BKD       0.188300
     21 N10          4.6990    -0.9600     0.5000 nc         1 BKD      -0.509800
     22 N11          3.9520    -0.1130    -0.3320 na         1 BKD      -0.029600
     23 N24          6.5020    -5.4410     2.3470 na         1 BKD      -0.187400
     24 N4           5.5160    -1.0200    -3.9620 n          1 BKD      -0.496800
     25 O3           4.8300    -1.3080    -6.0520 o          1 BKD      -0.626100
     26 H1          -0.4680    -0.9390    -0.2700 hc         1 BKD       0.083200
     27 H2          -0.4680     0.9390    -0.2700 hc         1 BKD       0.083200
     28 H3           5.8270     1.0120    -3.6370 h1         1 BKD       0.066700
     29 H4           4.5500     0.5850    -4.8690 h1         1 BKD       0.066700
     30 H5           3.0430    -0.0540    -3.1830 hc         1 BKD       0.047200
     31 H6           3.7830     1.5070    -2.5910 hc         1 BKD       0.047200
     32 H7           2.0190     2.0690     0.3180 h1         1 BKD       0.092200
     33 H8           1.8820     1.6070    -1.3840 h1         1 BKD       0.092200
     34 H9           1.9830    -0.9480    -0.2620 hc         1 BKD       0.151700
     35 H10          5.1840    -3.7710    -4.3090 hc         1 BKD       0.061033
     36 H11          6.8150    -3.2930    -4.8000 hc         1 BKD       0.061033
     37 H12          5.5950    -3.6630    -6.0260 hc         1 BKD       0.061033
     38 H13          0.7650     0.9390     1.8650 hc         1 BKD       0.083200
     39 H14          0.7650    -0.9390     1.8650 hc         1 BKD       0.083200
     40 H15          8.2290    -1.6640    -0.8200 ha         1 BKD       0.133000
     41 H16          9.8870    -3.3020    -0.0290 ha         1 BKD       0.127000
     42 H17          9.2240    -5.1330     1.4630 ha         1 BKD       0.121000
     43 H18          3.9810    -3.5080     1.5820 ha         1 BKD       0.162000
     44 H19          4.4400    -5.6340     3.0270 h4         1 BKD       0.160000
     45 H20          6.2360    -2.6280    -2.8410 h1         1 BKD       0.055700
     46 H21          7.2030    -1.0800    -2.7330 h1         1 BKD       0.055700
     47 H25          6.9300    -6.2200     2.8080 hn         1 BKD       0.291700
@<TRIPOS>BOND
     1    10     1 1
     2    10     8 1
     3     1     8 1
     4     8     7 1
     5     7    22 1
     6     3     4 1
     7     3     2 1
     8    22     4 1
     9    22    21 1
    10     4     5 2
    11     2    24 1
    12    21     6 2
    13     5     6 1
    14     5    20 1
    15    25    15 2
    16     6    11 1
    17    24    15 1
    18    24    20 1
    19    15     9 1
    20    18    17 1
    21    18    19 2
    22    11    17 ar
    23    11    12 ar
    24    17    16 ar
    25    19    23 1
    26    12    13 ar
    27    16    23 1
    28    16    14 ar
    29    13    14 ar
    30     1    26 1
    31     1    27 1
    32     2    28 1
    33     2    29 1
    34     3    30 1
    35     3    31 1
    36     7    32 1
    37     7    33 1
    38     8    34 1
    39     9    35 1
    40     9    36 1
    41     9    37 1
    42    10    38 1
    43    10    39 1
    44    12    40 1
    45    13    41 1
    46    14    42 1
    47    18    43 1
    48    19    44 1
    49    20    45 1
    50    20    46 1
    51    23    47 1
@<TRIPOS>SUBSTRUCTURE
     1 BKD         1 TEMP              0 ****  ****    0 ROOT
