@<TRIPOS>MOLECULE
molecule
   39    42     1     0     0
SMALL
bcc


@<TRIPOS>ATOM
      1 C            0.0000     0.0000     0.0000 c3         1 BKE       0.127700
      2 N            3.9400    -0.0010     4.9280 na         1 BKE       0.045800
      3 O            1.4290     0.0000     0.0000 os         1 BKE      -0.325900
      4 C1           2.0460     0.0000     1.2110 ca         1 BKE       0.147100
      5 N1           2.7830     1.8740     6.0890 nc         1 BKE      -0.652100
      6 C2           3.4320     0.0000     1.2840 ca         1 BKE      -0.182000
      7 N2           3.4920     2.2850     8.2710 ns         1 BKE      -0.471400
      8 C3           4.0590     0.0000     2.5130 ca         1 BKE      -0.080000
      9 C4           3.3040     0.0000     3.6780 ca         1 BKE      -0.052200
     10 C5           1.9170    -0.0000     3.6050 ca         1 BKE      -0.080000
     11 C6           1.2900     0.0060     2.3750 ca         1 BKE      -0.182000
     12 C7           4.9370    -0.8600     5.2960 cc         1 BKE      -0.125300
     13 C8           5.3260    -0.5850     6.5670 cd         1 BKE      -0.040000
     14 C9           4.4980     0.5390     7.0190 cd         1 BKE      -0.268600
     15 C10          3.6550     0.8620     5.9480 cc         1 BKE       0.194100
     16 C11          2.7100     2.5570     7.1960 cd         1 BKE       0.508800
     17 C12          4.4040     1.2860     8.2140 c          1 BKE       0.725100
     18 C13          6.3780    -1.2810     7.3450 ca         1 BKE      -0.012000
     19 C14          6.3790    -2.6730     7.4320 ca         1 BKE      -0.101500
     20 C15          7.3610    -3.3160     8.1570 ca         1 BKE      -0.132500
     21 C16          8.3430    -2.5830     8.7980 ca         1 BKE      -0.127000
     22 C17          8.3470    -1.2010     8.7170 ca         1 BKE      -0.132500
     23 C18          7.3740    -0.5480     7.9890 ca         1 BKE      -0.101500
     24 H           -0.3610     0.8860     0.5090 h1         1 BKE       0.043700
     25 HA          -0.3610    -0.8830     0.5130 h1         1 BKE       0.043700
     26 HB          -0.3610    -0.0020    -1.0210 h1         1 BKE       0.043700
     27 H2           4.0220     0.0010     0.3750 ha         1 BKE       0.147000
     28 HN2          3.4040     2.8330     9.1040 hn         1 BKE       0.338500
     29 H3           5.1400     0.0010     2.5700 ha         1 BKE       0.148500
     30 H5           1.3270     0.0040     4.5140 ha         1 BKE       0.148500
     31 H6           0.2080     0.0060     2.3180 ha         1 BKE       0.147000
     32 H7           5.3530    -1.6400     4.6700 h4         1 BKE       0.182000
     33 H11          1.9880     3.3610     7.2660 h5         1 BKE       0.058800
     34 H14          5.6110    -3.2480     6.9300 ha         1 BKE       0.134500
     35 H15          7.3620    -4.3970     8.2250 ha         1 BKE       0.127500
     36 H16          9.1100    -3.0920     9.3690 ha         1 BKE       0.125000
     37 H17          9.1200    -0.6330     9.2200 ha         1 BKE       0.127500
     38 H18          7.3780     0.5340     7.9270 ha         1 BKE       0.134500
     39 O1           5.1230     1.0390     9.1670 o          1 BKE      -0.633500
@<TRIPOS>BOND
     1     1     3 1
     2     2     9 1
     3     2    12 1
     4     2    15 1
     5     3     4 1
     6     4     6 ar
     7     4    11 ar
     8     5    15 1
     9     5    16 2
    10    39    17 2
    11     6     8 ar
    12     7    16 1
    13     7    17 1
    14     8     9 ar
    15     9    10 ar
    16    10    11 ar
    17    12    13 2
    18    13    14 1
    19    13    18 1
    20    14    15 2
    21    14    17 1
    22    18    19 ar
    23    18    23 ar
    24    19    20 ar
    25    20    21 ar
    26    21    22 ar
    27    22    23 ar
    28     1    24 1
    29     1    25 1
    30     1    26 1
    31     6    27 1
    32     7    28 1
    33     8    29 1
    34    10    30 1
    35    11    31 1
    36    12    32 1
    37    16    33 1
    38    19    34 1
    39    20    35 1
    40    21    36 1
    41    22    37 1
    42    23    38 1
@<TRIPOS>SUBSTRUCTURE
     1 BKE         1 TEMP              0 ****  ****    0 ROOT
