@<TRIPOS>MOLECULE
molecule
   49    52     1     0     0
SMALL
bcc


@<TRIPOS>ATOM
      1 C15          0.0000     0.0000     0.0000 ca         1 BKH      -0.094000
      2 C14          1.3840     0.0000     0.0000 ca         1 BKH       0.024400
      3 C13         -5.2380     6.3680     0.1830 ca         1 BKH       0.125900
      4 C12         -4.3110     7.1200     0.8880 ca         1 BKH       0.061900
      5 C11         -3.6720     6.5810     1.9950 ca         1 BKH       0.125900
      6 C10         -5.5310     5.0780     0.5820 ca         1 BKH      -0.145500
      7 C8          -4.8920     4.5330     1.6940 ca         1 BKH      -0.068500
      8 C9          -3.9610     5.2900     2.4000 ca         1 BKH      -0.145500
      9 C6          -4.6650     2.4770     3.1860 cc         1 BKH      -0.293600
     10 N1          -6.0710     1.1920     2.2070 nc         1 BKH      -0.156800
     11 C2          -4.2790    -1.3670     2.3380 c3         1 BKH       0.111100
     12 C3          -3.5180     0.2500     4.6050 c3         1 BKH       0.119100
     13 C4          -2.6150    -0.0010     3.3940 c3         1 BKH       0.194200
     14 Cl1          3.8150     0.0010     1.1950 cl         1 BKH      -0.084400
     15 C19          2.0790     0.0000     1.1990 ca         1 BKH       0.038400
     16 Cl           2.2510     0.0000    -1.5040 cl         1 BKH      -0.086400
     17 C18          1.3900     0.0010     2.3970 ca         1 BKH      -0.100000
     18 C17          0.0010    -0.0000     2.3980 ca         1 BKH       0.031900
     19 C16         -0.6920    -0.0000     1.1940 ca         1 BKH      -0.119000
     20 S           -0.8790     0.0000     3.9250 ss         1 BKH      -0.186000
     21 O2          -2.9350    -1.2670     2.8160 os         1 BKH      -0.370600
     22 C           -5.2500    -1.1710     3.5060 c3         1 BKH       0.117100
     23 O           -6.5930    -1.2130     3.0210 oh         1 BKH      -0.576800
     24 O1          -3.2770    -0.7500     5.5960 oh         1 BKH      -0.570800
     25 C1          -4.9830     0.1880     4.1600 c3         1 BKH       0.039000
     26 N           -5.2470     1.2570     3.1920 na         1 BKH       0.126400
     27 C7          -5.2040     3.1470     2.1240 cd         1 BKH       0.337800
     28 N2          -6.0720     2.2970     1.5480 nd         1 BKH      -0.366000
     29 F2          -5.8600     6.9000    -0.8920 f          1 BKH      -0.117400
     30 F1          -4.0280     8.3820     0.4950 f          1 BKH      -0.112900
     31 F           -2.7690     7.3160     2.6780 f          1 BKH      -0.117400
     32 H15         -0.5410     0.0000    -0.9390 ha         1 BKH       0.157000
     33 H10         -6.2550     4.4910     0.0310 ha         1 BKH       0.164000
     34 H9          -3.4630     4.8690     3.2640 ha         1 BKH       0.164000
     35 H6          -3.9240     2.8490     3.8830 h4         1 BKH       0.187000
     36 H2          -4.4340    -2.3470     1.9020 h1         1 BKH       0.106700
     37 H3          -3.3070     1.2300     5.0140 h1         1 BKH       0.056700
     38 HO3         -4.2970    -0.6380    -0.6290 ho         1 BKH       0.410000
     39 H4          -2.7730     0.7800     2.6600 h2         1 BKH       0.078700
     40 H18          1.9330     0.0010     3.3350 ha         1 BKH       0.155000
     41 H16         -1.7760    -0.0010     1.1930 ha         1 BKH       0.168000
     42 HXT         -5.0980    -1.9580     4.2360 h1         1 BKH       0.082700
     43 HO          -7.0600    -1.9120     3.4480 ho         1 BKH       0.408000
     44 HO1         -3.0390    -0.3360     6.4090 ho         1 BKH       0.416000
     45 H1          -5.6270     0.3060     5.0230 h1         1 BKH       0.092700
     46 C5          -4.5270    -0.2870     1.2830 c3         1 BKH       0.086400
     47 H51         -4.2530     0.6810     1.6850 h1         1 BKH       0.068200
     48 O3          -3.7350    -0.5630     0.1250 oh         1 BKH      -0.612800
     49 H52         -5.5750    -0.2820     1.0110 h1         1 BKH       0.068200
@<TRIPOS>BOND
     1     1    19 ar
     2     1     2 ar
     3    19    18 ar
     4    16     2 1
     5     2    15 ar
     6    20    18 1
     7    20    13 1
     8    18    17 ar
     9    15    17 ar
    10    15    14 1
    11    10    28 2
    12    10    26 1
    13    24    12 1
    14    28    27 1
    15    13    12 1
    16    13    21 1
    17    25    26 1
    18    25    12 1
    19    25    22 1
    20    26     9 1
    21    11    21 1
    22    11    22 1
    23    11    46 1
    24    27     9 2
    25    27     7 1
    26    22    23 1
    27     6     7 ar
    28     6     3 ar
    29    29     3 1
    30    48    46 1
    31     7     8 ar
    32     3     4 ar
    33     8     5 ar
    34     4     5 ar
    35     4    30 1
    36     5    31 1
    37     1    32 1
    38     6    33 1
    39     8    34 1
    40     9    35 1
    41    46    47 1
    42    46    49 1
    43    11    36 1
    44    12    37 1
    45    48    38 1
    46    13    39 1
    47    17    40 1
    48    19    41 1
    49    22    42 1
    50    23    43 1
    51    24    44 1
    52    25    45 1
@<TRIPOS>SUBSTRUCTURE
     1 BKH         1 TEMP              0 ****  ****    0 ROOT
