@<TRIPOS>MOLECULE
molecule
   35    38     1     0     0
SMALL
bcc


@<TRIPOS>ATOM
      1 C            0.0000     0.0000     0.0000 ca         1 BKI      -0.123000
      2 N            2.0810     0.0010     3.6110 na         1 BKI       0.039800
      3 O            3.4800     1.0400     7.7840 o          1 BKI      -0.633500
      4 Br           8.0660    -3.4730     8.1750 br         1 BKI      -0.105100
      5 C1           1.3820     0.0000     0.0000 ca         1 BKI      -0.118500
      6 N1           0.9870     1.8780     4.8300 nc         1 BKI      -0.651100
      7 C2           2.0750     0.0000     1.1950 ca         1 BKI      -0.118500
      8 N2           1.8070     2.2870     6.9720 ns         1 BKI      -0.469400
      9 C3           1.3810     0.0010     2.3980 ca         1 BKI      -0.011200
     10 C4          -0.0080     0.0030     2.3940 ca         1 BKI      -0.118500
     11 C5          -0.6940     0.0020     1.1960 ca         1 BKI      -0.118500
     12 C6           3.0950    -0.8610     3.9290 cc         1 BKI      -0.119300
     13 C7           3.5480    -0.5840     5.1780 cd         1 BKI      -0.048000
     14 C8           2.7450     0.5410     5.6710 cd         1 BKI      -0.267600
     15 C9           1.8500     0.8650     4.6450 cc         1 BKI       0.199100
     16 C10          0.9720     2.5610     5.9380 cd         1 BKI       0.512800
     17 C11          2.7130     1.2880     6.8690 c          1 BKI       0.725100
     18 C12          4.6380    -1.2810     5.9020 ca         1 BKI       0.003000
     19 C13          4.6420    -2.6720     5.9880 ca         1 BKI      -0.102000
     20 C14          5.6590    -3.3170     6.6620 ca         1 BKI      -0.106500
     21 C15          6.6750    -2.5840     7.2520 ca         1 BKI      -0.016900
     22 C16          6.6760    -1.2020     7.1690 ca         1 BKI      -0.106500
     23 C17          5.6660    -0.5490     6.4930 ca         1 BKI      -0.102000
     24 H           -0.5410    -0.0000    -0.9390 ha         1 BKI       0.135000
     25 H1           1.9230    -0.0010    -0.9390 ha         1 BKI       0.138000
     26 H2           3.1580     0.0000     1.1940 ha         1 BKI       0.146000
     27 HN2          1.7630     2.8360     7.8080 hn         1 BKI       0.339500
     28 H4          -0.5520     0.0050     3.3310 ha         1 BKI       0.146000
     29 H5          -1.7780     0.0030     1.1930 ha         1 BKI       0.138000
     30 H6           3.4770    -1.6420     3.2830 h4         1 BKI       0.184000
     31 H10          0.2550     3.3660     6.0460 h5         1 BKI       0.060800
     32 H13          3.8480    -3.2470     5.5270 ha         1 BKI       0.142000
     33 H14          5.6630    -4.3980     6.7300 ha         1 BKI       0.142500
     34 H16          7.4750    -0.6330     7.6290 ha         1 BKI       0.142500
     35 H17          5.6680     0.5330     6.4280 ha         1 BKI       0.142000
@<TRIPOS>BOND
     1     1     5 ar
     2     1    11 ar
     3     2     9 1
     4     2    12 1
     5     2    15 1
     6     3    17 2
     7     4    21 1
     8     5     7 ar
     9     6    15 1
    10     6    16 2
    11     7     9 ar
    12     8    16 1
    13     8    17 1
    14     9    10 ar
    15    10    11 ar
    16    12    13 2
    17    13    14 1
    18    13    18 1
    19    14    15 2
    20    14    17 1
    21    18    19 ar
    22    18    23 ar
    23    19    20 ar
    24    20    21 ar
    25    21    22 ar
    26    22    23 ar
    27     1    24 1
    28     5    25 1
    29     7    26 1
    30     8    27 1
    31    10    28 1
    32    11    29 1
    33    12    30 1
    34    16    31 1
    35    19    32 1
    36    20    33 1
    37    22    34 1
    38    23    35 1
@<TRIPOS>SUBSTRUCTURE
     1 BKI         1 TEMP              0 ****  ****    0 ROOT
