@<TRIPOS>MOLECULE
molecule
   62    67     1     0     0
SMALL
bcc


@<TRIPOS>ATOM
      1 C14          0.0000     0.0000     0.0000 c3         1 BKJ       0.138400
      2 C5           5.1690     2.6040     3.5040 c3         1 BKJ       0.105000
      3 C6           3.9660     2.1260     2.6810 c3         1 BKJ      -0.038100
      4 C7           4.3320     0.8360     1.9900 cc         1 BKJ      -0.067600
      5 C8           5.6000     0.3990     1.8010 cd         1 BKJ      -0.314600
      6 C9           5.5430    -0.8260     1.1210 cd         1 BKJ       0.402800
      7 C12          2.0340     0.0000     1.4460 c3         1 BKJ       0.084000
      8 C13          1.5310     0.0000     0.0000 c3         1 BKJ      -0.131400
      9 C16         -0.0760    -1.1670     2.0930 c3         1 BKJ       0.138400
     10 C17          1.4520    -1.2140     2.1780 c3         1 BKJ      -0.131400
     11 C18          6.7020    -1.6500     0.7070 ca         1 BKJ      -0.080500
     12 C19          7.7200    -1.9270     1.6040 ca         1 BKJ      -0.120000
     13 C2           7.0860     3.5850     2.3310 c          1 BKJ       0.663100
     14 C20          8.8120    -2.7000     1.2250 ca         1 BKJ      -0.110000
     15 C21          8.9130    -3.2080    -0.0370 ca         1 BKJ      -0.120000
     16 C22          7.9030    -2.9520    -0.9760 ca         1 BKJ      -0.002000
     17 C23          6.7780    -2.1700    -0.6050 ca         1 BKJ      -0.161300
     18 C24          5.7770    -1.9300    -1.5560 ca         1 BKJ       0.465200
     19 C26          6.9270    -3.1560    -3.1550 ca         1 BKJ       0.526800
     20 C27          7.9630    -3.4530    -2.2880 ca         1 BKJ      -0.246300
     21 C28          6.9730    -3.6750    -4.5440 cd         1 BKJ      -0.375800
     22 C29          7.9410    -4.5510    -5.0750 cd         1 BKJ       0.350200
     23 C32          6.0800    -3.3980    -5.5390 cc         1 BKJ      -0.066300
     24 C34          6.8260     1.1450     2.2710 c3         1 BKJ       0.194300
     25 N10          4.2710    -1.1110     0.9140 nc         1 BKJ      -0.502800
     26 N11          3.4970    -0.0760     1.4570 na         1 BKJ       0.081400
     27 N25          5.8810    -2.4260    -2.7650 nb         1 BKJ      -0.709000
     28 N30          7.6410    -4.7770    -6.3260 nc         1 BKJ      -0.516800
     29 N31          6.4780    -4.0650    -6.6410 na         1 BKJ       0.064400
     30 N4           6.3880     2.4890     2.6880 n          1 BKJ      -0.501800
     31 O15         -0.4750    -1.1380     0.7220 os         1 BKJ      -0.414600
     32 O3           8.0890     3.4730     1.6580 o          1 BKJ      -0.602100
     33 H1          -0.3600     0.9040     0.4760 h1         1 BKJ       0.049700
     34 H2          -0.3600    -0.0450    -1.0210 h1         1 BKJ       0.049700
     35 H3           5.2740     1.9520     4.3620 h1         1 BKJ       0.059700
     36 H4           5.0200     3.6500     3.7440 h1         1 BKJ       0.059700
     37 H5           3.1480     1.9260     3.3620 hc         1 BKJ       0.063700
     38 H6           3.7560     2.8700     1.9220 hc         1 BKJ       0.063700
     39 H7           1.7100     0.9080     1.9400 h1         1 BKJ       0.064700
     40 H8           1.8910    -0.8860    -0.5080 hc         1 BKJ       0.070700
     41 H9           1.8910     0.8860    -0.5080 hc         1 BKJ       0.070700
     42 H10          5.6560     5.1620     2.3240 hc         1 BKJ       0.060033
     43 H11          7.3390     5.6960     2.4480 hc         1 BKJ       0.060033
     44 H12          6.5350     4.9730     3.8480 hc         1 BKJ       0.060033
     45 H13         -0.4370    -0.2750     2.5920 h1         1 BKJ       0.049700
     46 H14         -0.4900    -2.0460     2.5710 h1         1 BKJ       0.049700
     47 H15          1.7570    -1.1890     3.2170 hc         1 BKJ       0.070700
     48 H16          1.8110    -2.1230     1.7110 hc         1 BKJ       0.070700
     49 H17          7.6650    -1.5360     2.6130 ha         1 BKJ       0.135000
     50 H18          9.5960    -2.9030     1.9450 ha         1 BKJ       0.132000
     51 H19          9.7710    -3.8080    -0.3120 ha         1 BKJ       0.136000
     52 H20          4.9070    -1.3430    -1.2870 h4         1 BKJ       0.042100
     53 H21          8.8920    -3.8560    -2.6720 ha         1 BKJ       0.141000
     54 H22          8.7880    -4.9620    -4.5390 h4         1 BKJ       0.049100
     55 H23          5.2700    -2.6820    -5.4860 h4         1 BKJ       0.188000
     56 H24          6.3530    -4.6730    -8.6390 h1         1 BKJ       0.055367
     57 H25          4.7970    -4.4310    -7.8330 h1         1 BKJ       0.055367
     58 H26          5.7680    -3.0350    -8.3180 h1         1 BKJ       0.055367
     59 H27          7.2320     0.6310     3.1340 h1         1 BKJ       0.074200
     60 H28          7.5070     1.2480     1.4350 h1         1 BKJ       0.074200
     61 C33          5.8050    -4.0500    -7.9420 c3         1 BKJ       0.062600
     62 C1           6.6210     4.9500     2.7680 c3         1 BKJ      -0.171100
@<TRIPOS>BOND
     1    61    29 1
     2     9    10 1
     3     9    31 1
     4    10     7 1
     5    31     1 1
     6    29    23 1
     7    29    28 1
     8    23    21 2
     9     1     8 1
    10     7     8 1
    11     7    26 1
    12     3     4 1
    13     3     2 1
    14    27    18 ar
    15    27    19 ar
    16    32    13 2
    17    28    22 2
    18    26     4 1
    19    26    25 1
    20    21    19 1
    21    21    22 1
    22     4     5 2
    23    18    17 ar
    24     2    30 1
    25    13    30 1
    26    13    62 1
    27    19    20 ar
    28    25     6 2
    29    30    24 1
    30     5     6 1
    31     5    24 1
    32     6    11 1
    33    17    11 ar
    34    17    16 ar
    35    20    16 ar
    36    11    12 ar
    37    16    15 ar
    38    12    14 ar
    39    15    14 ar
    40     1    33 1
    41     1    34 1
    42     2    35 1
    43     2    36 1
    44     3    37 1
    45     3    38 1
    46     7    39 1
    47     8    40 1
    48     8    41 1
    49    62    42 1
    50    62    43 1
    51    62    44 1
    52     9    45 1
    53     9    46 1
    54    10    47 1
    55    10    48 1
    56    12    49 1
    57    14    50 1
    58    15    51 1
    59    18    52 1
    60    20    53 1
    61    22    54 1
    62    23    55 1
    63    61    56 1
    64    61    57 1
    65    61    58 1
    66    24    59 1
    67    24    60 1
@<TRIPOS>SUBSTRUCTURE
     1 BKJ         1 TEMP              0 ****  ****    0 ROOT
