@<TRIPOS>MOLECULE
BKJ
   62    67     1     0     0
SMALL
bcc


@<TRIPOS>ATOM
      1 C14          0.0000     0.0000     0.0000 c3         1 BKJ       0.219400
      2 C5           5.1690     2.6040     3.5040 c3         1 BKJ       0.045000
      3 C6           3.9660     2.1260     2.6810 c3         1 BKJ       0.047900
      4 C7           4.3320     0.8360     1.9900 cc         1 BKJ      -0.242600
      5 C8           5.6000     0.3990     1.8010 cd         1 BKJ      -0.328600
      6 C9           5.5430    -0.8260     1.1210 cd         1 BKJ       0.443800
      7 C12          2.0340     0.0000     1.4460 c3         1 BKJ      -0.039000
      8 C13          1.5310     0.0000     0.0000 c3         1 BKJ      -0.082900
      9 C16         -0.0760    -1.1670     2.0930 c3         1 BKJ       0.219400
     10 C17          1.4520    -1.2140     2.1780 c3         1 BKJ      -0.082900
     11 C18          6.7020    -1.6500     0.7070 ca         1 BKJ      -0.076500
     12 C19          7.7200    -1.9270     1.6040 ca         1 BKJ      -0.102000
     13 C2           7.0860     3.5850     2.3310 c          1 BKJ       0.590100
     14 C20          8.8120    -2.7000     1.2250 ca         1 BKJ      -0.084000
     15 C21          8.9130    -3.2080    -0.0370 ca         1 BKJ      -0.093000
     16 C22          7.9030    -2.9520    -0.9760 ca         1 BKJ      -0.005000
     17 C23          6.7780    -2.1700    -0.6050 ca         1 BKJ      -0.153300
     18 C24          5.7770    -1.9300    -1.5560 ca         1 BKJ       0.435200
     19 C26          6.9270    -3.1560    -3.1550 ca         1 BKJ       0.492800
     20 C27          7.9630    -3.4530    -2.2880 ca         1 BKJ      -0.221300
     21 C28          6.9730    -3.6750    -4.5440 cc         1 BKJ      -0.387800
     22 C29          7.9410    -4.5510    -5.0750 cc         1 BKJ       0.408200
     23 C32          6.0800    -3.3980    -5.5390 cd         1 BKJ      -0.210300
     24 C34          6.8260     1.1450     2.2710 c3         1 BKJ       0.163300
     25 N10          4.2710    -1.1110     0.9140 nc         1 BKJ      -0.642800
     26 N11          3.4970    -0.0760     1.4570 na         1 BKJ       0.517400
     27 N25          5.8810    -2.4260    -2.7650 nb         1 BKJ      -0.594000
     28 N30          7.6410    -4.7770    -6.3260 nd         1 BKJ      -0.655800
     29 N31          6.4780    -4.0650    -6.6410 na         1 BKJ       0.487400
     30 N4           6.3880     2.4890     2.6880 n          1 BKJ      -0.172800
     31 O15         -0.4750    -1.1380     0.7220 os         1 BKJ      -0.401600
     32 O3           8.0890     3.4730     1.6580 o          1 BKJ      -0.641100
     33 H1          -0.3600     0.9040     0.4760 h1         1 BKJ       0.009200
     34 H2          -0.3600    -0.0450    -1.0210 h1         1 BKJ       0.009200
     35 H3           5.2740     1.9520     4.3620 h1         1 BKJ       0.033200
     36 H4           5.0200     3.6500     3.7440 h1         1 BKJ       0.033200
     37 H5           3.1480     1.9260     3.3620 hc         1 BKJ       0.029200
     38 H6           3.7560     2.8700     1.9220 hc         1 BKJ       0.029200
     39 H7           1.7100     0.9080     1.9400 h1         1 BKJ       0.042700
     40 H8           1.8910    -0.8860    -0.5080 hc         1 BKJ       0.041200
     41 H9           1.8910     0.8860    -0.5080 hc         1 BKJ       0.041200
     42 H10          5.6560     5.1620     2.3240 hc         1 BKJ       0.024367
     43 H11          7.3390     5.6960     2.4480 hc         1 BKJ       0.024367
     44 H12          6.5350     4.9730     3.8480 hc         1 BKJ       0.024367
     45 H13         -0.4370    -0.2750     2.5920 h1         1 BKJ       0.009200
     46 H14         -0.4900    -2.0460     2.5710 h1         1 BKJ       0.009200
     47 H15          1.7570    -1.1890     3.2170 hc         1 BKJ       0.041200
     48 H16          1.8110    -2.1230     1.7110 hc         1 BKJ       0.041200
     49 H17          7.6650    -1.5360     2.6130 ha         1 BKJ       0.109000
     50 H18          9.5960    -2.9030     1.9450 ha         1 BKJ       0.102000
     51 H19          9.7710    -3.8080    -0.3120 ha         1 BKJ       0.108000
     52 H20          4.9070    -1.3430    -1.2870 h4         1 BKJ       0.000100
     53 H21          8.8920    -3.8560    -2.6720 ha         1 BKJ       0.121000
     54 H22          8.7880    -4.9620    -4.5390 h4         1 BKJ       0.005100
     55 H23          5.2700    -2.6820    -5.4860 h4         1 BKJ       0.158000
     56 H24          6.3530    -4.6730    -8.6390 h1         1 BKJ       0.021033
     57 H25          4.7970    -4.4310    -7.8330 h1         1 BKJ       0.021033
     58 H26          5.7680    -3.0350    -8.3180 h1         1 BKJ       0.021033
     59 H27          7.2320     0.6310     3.1340 h1         1 BKJ       0.043200
     60 H28          7.5070     1.2480     1.4350 h1         1 BKJ       0.043200
     61 C33          5.8050    -4.0500    -7.9420 c3         1 BKJ       0.023600
     62 C1           6.6210     4.9500     2.7680 c3         1 BKJ      -0.073100
@<TRIPOS>BOND
     1     1     8 1   
     2     1    31 1   
     3     1    33 1   
     4     1    34 1   
     5     2     3 1   
     6     2    30 1   
     7     2    35 1   
     8     2    36 1   
     9     3     4 1   
    10     3    37 1   
    11     3    38 1   
    12     4     5 2   
    13     4    26 1   
    14     5     6 1   
    15     5    24 1   
    16     6    11 1   
    17     6    25 2   
    18     7     8 1   
    19     7    10 1   
    20     7    26 1   
    21     7    39 1   
    22     8    40 1   
    23     8    41 1   
    24     9    10 1   
    25     9    31 1   
    26     9    45 1   
    27     9    46 1   
    28    10    47 1   
    29    10    48 1   
    30    11    12 ar  
    31    11    17 ar  
    32    12    14 ar  
    33    12    49 1   
    34    13    30 1   
    35    13    32 2   
    36    13    62 1   
    37    14    15 ar  
    38    14    50 1   
    39    15    16 ar  
    40    15    51 1   
    41    16    17 ar  
    42    16    20 ar  
    43    17    18 ar  
    44    18    27 ar  
    45    18    52 1   
    46    19    20 ar  
    47    19    21 1   
    48    19    27 ar  
    49    20    53 1   
    50    21    22 1   
    51    21    23 2   
    52    22    28 2   
    53    22    54 1   
    54    23    29 1   
    55    23    55 1   
    56    24    30 1   
    57    24    59 1   
    58    24    60 1   
    59    25    26 1   
    60    28    29 1   
    61    29    61 1   
    62    42    62 1   
    63    43    62 1   
    64    44    62 1   
    65    56    61 1   
    66    57    61 1   
    67    58    61 1   
@<TRIPOS>SUBSTRUCTURE
     1 BKJ         1 TEMP              0 ****  ****    0 ROOT
