@<TRIPOS>MOLECULE
molecule
   49    52     1     0     0
SMALL
bcc


@<TRIPOS>ATOM
      1 C1           0.0000     0.0000     0.0000 c3         1 BKK       0.069000
      2 C2           0.0810    -1.1670     2.2050 c3         1 BKK       0.127100
      3 C3           1.5320     0.0000     0.0000 c3         1 BKK       0.121100
      4 C4           2.0340     0.0000     1.4460 c3         1 BKK       0.191200
      5 C5          -0.3640    -2.4070     2.9810 c3         1 BKK       0.151400
      6 C6           0.0920    -0.7630    -2.3880 cc         1 BKK      -0.254600
      7 C10         -1.3850    -0.8190    -5.8670 ca         1 BKK      -0.148000
      8 C11          0.8090    -2.4420    -6.3750 ca         1 BKK       0.124900
      9 C12         -0.0900    -2.1450    -7.3890 ca         1 BKK       0.057900
     10 C13         -1.1850    -1.3340    -7.1340 ca         1 BKK       0.124900
     11 C14          4.8550     0.3370     5.8540 ca         1 BKK      -0.125000
     12 C15          3.5350     0.3540     5.4440 ca         1 BKK      -0.103000
     13 C7          -0.6960    -0.5640    -3.4840 cd         1 BKK       0.318800
     14 C8          -0.4850    -1.1150    -4.8460 ca         1 BKK      -0.062500
     15 C9           0.6150    -1.9290    -5.1060 ca         1 BKK      -0.148000
     16 C19          5.8710     0.2010     4.9220 ca         1 BKK       0.039400
     17 C18          5.5660     0.0760     3.5800 ca         1 BKK      -0.105000
     18 C17          4.2390     0.0870     3.1660 ca         1 BKK       0.042900
     19 C16          3.2240     0.2350     4.1040 ca         1 BKK      -0.124000
     20 S            3.8460    -0.0710     1.4560 ss         1 BKK      -0.195000
     21 O2           1.5090    -1.1380     2.1320 os         1 BKK      -0.376600
     22 O3           0.0820    -2.3080     4.3350 oh         1 BKK      -0.597800
     23 C           -0.5000    -1.2140     0.7900 c3         1 BKK       0.099100
     24 O           -0.0770    -2.4140     0.1390 oh         1 BKK      -0.592800
     25 O1           2.0080     1.1670    -0.6730 oh         1 BKK      -0.586800
     26 N           -0.4910    -0.0770    -1.3790 na         1 BKK       0.140400
     27 N2          -1.7040     0.2320    -3.0820 nd         1 BKK      -0.348000
     28 N1          -1.5480     0.4980    -1.8330 nc         1 BKK      -0.197800
     29 F1           0.1030    -2.6460    -8.6290 f          1 BKK      -0.114900
     30 F            1.8740    -3.2320    -6.6290 f          1 BKK      -0.118900
     31 H1          -0.3600     0.9080     0.4680 h1         1 BKK       0.110700
     32 H2          -0.2710    -0.2750     2.7080 h1         1 BKK       0.057700
     33 H3           1.8920    -0.8880    -0.5060 h1         1 BKK       0.077700
     34 H4           1.7000     0.9040     1.9420 h2         1 BKK       0.072700
     35 H5          -1.4450    -2.4770     2.9610 h1         1 BKK       0.039200
     36 H6           0.0630    -3.2920     2.5240 h1         1 BKK       0.039200
     37 H7           0.8550    -1.5240    -2.2820 h4         1 BKK       0.192000
     38 H8          -2.2410    -0.1850    -5.6680 ha         1 BKK       0.165500
     39 H9           5.0960     0.4300     6.9060 ha         1 BKK       0.145000
     40 H10          2.7430     0.4650     6.1760 ha         1 BKK       0.141000
     41 H11          1.3170    -2.1620    -4.3150 ha         1 BKK       0.165500
     42 H12          6.3610    -0.0350     2.8520 ha         1 BKK       0.152000
     43 H13          2.1890     0.2460     3.7850 ha         1 BKK       0.145000
     44 H14         -0.3710    -2.9450     4.8630 ho         1 BKK       0.409000
     45 H15         -1.5820    -1.1880     0.8440 h1         1 BKK       0.064700
     46 H16         -0.8130    -2.9930     0.0380 ho         1 BKK       0.415000
     47 H17          2.8140     0.9660    -1.1190 ho         1 BKK       0.423000
     48 F2          -2.0590    -1.0460    -8.1230 f          1 BKK      -0.118900
     49 Cl           7.5270     0.1870     5.4410 cl         1 BKK      -0.103400
@<TRIPOS>BOND
     1    12    11 ar
     2    12    19 ar
     3    11    16 ar
     4    19    18 ar
     5    16    49 1
     6    16    17 ar
     7    18    17 ar
     8    18    20 1
     9    25     3 1
    10    28    27 2
    11    28    26 1
    12    27    13 1
    13    20     4 1
    14     4     3 1
    15     4    21 1
    16     1     3 1
    17     1    26 1
    18     1    23 1
    19    26     6 1
    20     2    21 1
    21     2    23 1
    22     2     5 1
    23    13     6 2
    24    13    14 1
    25    23    24 1
    26     7    14 ar
    27     7    10 ar
    28    48    10 1
    29    22     5 1
    30    14    15 ar
    31    10     9 ar
    32    15     8 ar
    33     9     8 ar
    34     9    29 1
    35     8    30 1
    36     1    31 1
    37     2    32 1
    38     3    33 1
    39     4    34 1
    40     5    35 1
    41     5    36 1
    42     6    37 1
    43     7    38 1
    44    11    39 1
    45    12    40 1
    46    15    41 1
    47    17    42 1
    48    19    43 1
    49    22    44 1
    50    23    45 1
    51    24    46 1
    52    25    47 1
@<TRIPOS>SUBSTRUCTURE
     1 BKK         1 TEMP              0 ****  ****    0 ROOT
