@<TRIPOS>MOLECULE
molecule
   25    24     1     0     0
SMALL
bcc


@<TRIPOS>ATOM
      1 CAA          0.0000     0.0000     0.0000 c3         1 BKN      -0.096100
      2 CAE          1.5300     0.0000     0.0000 c3         1 BKN       0.146400
      3 OAI          2.0140     0.0000     1.3700 os         1 BKN      -0.434900
      4 CAK          3.3450    -0.0000     1.5450 c          1 BKN       0.630100
      5 OAD          4.0810    -0.0000     0.5870 o          1 BKN      -0.544000
      6 CAH          3.9210     0.0000     2.9370 c3         1 BKN      -0.129400
      7 CAF          5.4490    -0.0000     2.8580 c3         1 BKN      -0.063400
      8 CAG          6.0330    -0.0000     4.2710 c3         1 BKN      -0.186400
      9 CAJ          7.5380    -0.0000     4.1930 c          1 BKN       0.559100
     10 OAC          8.0860    -0.0000     3.1170 o          1 BKN      -0.516100
     11 CAB          8.3590    -0.0000     5.4560 c3         1 BKN      -0.195100
     12 H1          -0.3610     0.8850     0.5110 hc         1 BKN       0.047033
     13 H2          -0.3610    -0.0000    -1.0210 hc         1 BKN       0.047033
     14 H3          -0.3610    -0.8840     0.5110 hc         1 BKN       0.047033
     15 H4           1.8910     0.8850    -0.5110 h1         1 BKN       0.049700
     16 H5           1.8910    -0.8850    -0.5110 h1         1 BKN       0.049700
     17 H6           3.5870     0.8840     3.4660 hc         1 BKN       0.068700
     18 H7           3.5870    -0.8840     3.4660 hc         1 BKN       0.068700
     19 H8           5.7830     0.8840     2.3290 hc         1 BKN       0.072700
     20 H9           5.7830    -0.8840     2.3290 hc         1 BKN       0.072700
     21 H10          5.6990    -0.8850     4.8000 hc         1 BKN       0.062700
     22 H11          5.6990     0.8850     4.8000 hc         1 BKN       0.062700
     23 H12          8.1270    -0.8840     6.0370 hc         1 BKN       0.061033
     24 H13          8.1270     0.8850     6.0370 hc         1 BKN       0.061033
     25 H14          9.4120    -0.0000     5.2020 hc         1 BKN       0.061033
@<TRIPOS>BOND
     1    11     9 1
     2     9    10 2
     3     9     8 1
     4     8     7 1
     5     7     6 1
     6     6     4 1
     7     5     4 2
     8     4     3 1
     9     3     2 1
    10     2     1 1
    11     1    12 1
    12     1    13 1
    13     1    14 1
    14     2    15 1
    15     2    16 1
    16     6    17 1
    17     6    18 1
    18     7    19 1
    19     7    20 1
    20     8    21 1
    21     8    22 1
    22    11    23 1
    23    11    24 1
    24    11    25 1
@<TRIPOS>SUBSTRUCTURE
     1 BKN         1 TEMP              0 ****  ****    0 ROOT
