@<TRIPOS>MOLECULE
molecule
   49    51     1     0     0
SMALL
bcc


@<TRIPOS>ATOM
      1 PB           0.0000     0.0000     0.0000 p5         1 BKP       1.539800
      2 O1B          1.6110     0.0000     0.0000 o          1 BKP      -0.772500
      3 O2B         -0.4930     0.0000     1.3960 o          1 BKP      -0.772500
      4 O3B         -0.5360    -1.3140    -0.7590 os         1 BKP      -0.733800
      5 O3A         -0.5360     1.3150    -0.7580 os         1 BKP      -0.723800
      6 PA          -0.6270     2.8740    -0.3670 p5         1 BKP       1.444800
      7 O1A          0.8120     3.5640    -0.5780 o          1 BKP      -0.846000
      8 O2A         -1.0340     3.0030     1.0510 o          1 BKP      -0.846000
      9 O5'         -1.7140     3.6000    -1.3060 os         1 BKP      -0.589200
     10 C5'         -2.1010     4.9660    -1.1360 c3         1 BKP       0.236400
     11 C4'         -3.1470     5.3340    -2.1900 c3         1 BKP       0.117100
     12 O4'         -4.3590     4.5990    -1.9540 os         1 BKP      -0.359600
     13 C3'         -3.4910     6.8330    -2.0840 c3         1 BKP       0.075100
     14 O3'         -3.1860     7.5030    -3.3090 oh         1 BKP      -0.591800
     15 C2'         -5.0160     6.8540    -1.8190 c3         1 BKP       0.080100
     16 O2'         -5.6480     7.8960    -2.5660 oh         1 BKP      -0.590800
     17 C1'         -5.4540     5.4590    -2.3350 c3         1 BKP       0.255800
     18 N9          -6.6950     5.0350    -1.6830 na         1 BKP      -0.218900
     19 C8          -6.7940     4.2430    -0.5770 cc         1 BKP       0.399400
     20 N7          -8.0490     4.0710    -0.2740 nd         1 BKP      -0.653000
     21 C5          -8.8160     4.7410    -1.1650 cd         1 BKP       0.171800
     22 C6         -10.2590     4.9250    -1.3460 c          1 BKP       0.655000
     23 O6         -11.0540     4.4040    -0.5800 o          1 BKP      -0.640100
     24 N1         -10.6880     5.6790    -2.3710 nd         1 BKP      -0.848100
     25 C2          -9.8420     6.2470    -3.2040 cc         1 BKP       0.737100
     26 N2         -10.3370     7.0050    -4.2300 nz         1 BKP      -0.821600
     27 N3          -8.4950     6.1110    -3.0830 na         1 BKP      -0.692600
     28 C4          -7.9590     5.3640    -2.0650 cc         1 BKP      -0.015000
     29 PD          -2.5440    -4.9490    -1.3680 p5         1 BKP       1.295900
     30 PG          -0.7190    -2.8560    -0.3310 p5         1 BKP       1.560800
     31 O1G          0.7200    -3.5770    -0.2920 o          1 BKP      -0.701500
     32 O2G         -1.3430    -2.9260     1.0090 o          1 BKP      -0.701500
     33 O3G         -1.6630    -3.6020    -1.4010 os         1 BKP      -0.715800
     34 O4A         -1.5720    -6.2280    -1.4720 o          1 BKP      -0.656500
     35 O4B         -3.5680    -4.9510    -2.6100 o          1 BKP      -0.656500
     36 O4G         -3.3060    -5.0100    -0.1000 o          1 BKP      -0.656500
     37 H3          -2.5220     5.1010    -0.1470 h1         1 BKP       0.028700
     38 H4          -1.2330     5.6040    -1.2500 h1         1 BKP       0.028700
     39 H5          -2.7710     5.1130    -3.1810 h1         1 BKP       0.076700
     40 H6          -2.9580     7.2840    -1.2560 h1         1 BKP       0.046700
     41 H7          -2.5430     8.1740    -3.1480 ho         1 BKP       0.387000
     42 H8          -5.2190     6.9520    -0.7600 h1         1 BKP       0.064700
     43 H9          -5.7230     8.6670    -2.0290 ho         1 BKP       0.387000
     44 H10         -5.5680     5.4730    -3.4120 h2         1 BKP       0.074700
     45 H11         -5.9570     3.8210    -0.0330 h5         1 BKP       0.091100
     46 H12        -10.0270     6.6270    -5.1040 hn         1 BKP       0.220800
     47 H13        -10.0090     7.9460    -4.1390 hn         1 BKP       0.220800
     48 H14         -7.8900     6.5610    -3.7400 hn         1 BKP       0.383800
     49 H23        -11.3370     6.9960    -4.1990 hn         1 BKP       0.220800
@<TRIPOS>BOND
     1    14    13 1
     2     7     6 1
     3    26    25 1
     4    32    30 1
     5    16    15 1
     6    13    11 1
     7    13    15 1
     8    11    12 1
     9    11    10 1
    10     6     9 1
    11     6     8 1
    12     6     5 1
    13    27    25 1
    14    27    28 1
    15    25    24 2
    16     9    10 1
    17    15    17 1
    18    17    12 1
    19    17    18 1
    20     4    30 1
    21     4     1 1
    22    30    31 1
    23    30    33 1
    24     5     1 1
    25    24    22 1
    26    28    18 1
    27    28    21 2
    28     2     1 1
    29     1     3 1
    30    18    19 1
    31    33    29 1
    32    34    29 1
    33    22    21 1
    34    22    23 2
    35    21    20 1
    36    29    36 1
    37    29    35 1
    38    19    20 2
    39    10    37 1
    40    10    38 1
    41    11    39 1
    42    13    40 1
    43    14    41 1
    44    15    42 1
    45    16    43 1
    46    17    44 1
    47    19    45 1
    48    26    46 1
    49    26    47 1
    50    27    48 1
    51    49    26 1
@<TRIPOS>SUBSTRUCTURE
     1 BKP         1 TEMP              0 ****  ****    0 ROOT
