@<TRIPOS>MOLECULE
molecule
   22    21     1     0     0
SMALL
bcc


@<TRIPOS>ATOM
      1 CAA          0.0000     0.0000     0.0000 c3         1 BKQ      -0.096100
      2 CAE          1.5300     0.0000     0.0000 c3         1 BKQ       0.145400
      3 OAH          2.0140     0.0000     1.3690 os         1 BKQ      -0.428900
      4 CAJ          3.3440    -0.0000     1.5450 c          1 BKQ       0.631100
      5 OAD          4.0800    -0.0000     0.5870 o          1 BKQ      -0.559000
      6 CAG          3.9210     0.0000     2.9380 c3         1 BKQ      -0.117400
      7 CAF          5.4480    -0.0000     2.8590 c3         1 BKQ      -0.174400
      8 CAI          6.0240    -0.0000     4.2510 c          1 BKQ       0.560100
      9 OAC          5.2880     0.0000     5.2090 o          1 BKQ      -0.529100
     10 CAB          7.5180    -0.0000     4.4480 c3         1 BKQ      -0.194100
     11 H1          -0.3610    -0.8850     0.5110 hc         1 BKQ       0.047700
     12 H2          -0.3610     0.8850     0.5110 hc         1 BKQ       0.047700
     13 H3          -0.3610    -0.0000    -1.0210 hc         1 BKQ       0.047700
     14 H4           1.8910     0.8850    -0.5110 h1         1 BKQ       0.048700
     15 H5           1.8910    -0.8850    -0.5110 h1         1 BKQ       0.048700
     16 H6           3.5870     0.8840     3.4670 hc         1 BKQ       0.084700
     17 H7           3.5870    -0.8840     3.4670 hc         1 BKQ       0.084700
     18 H8           5.7820     0.8840     2.3300 hc         1 BKQ       0.080700
     19 H9           5.7820    -0.8840     2.3300 hc         1 BKQ       0.080700
     20 H10          7.7420     0.0000     5.5080 hc         1 BKQ       0.063033
     21 H11          7.9430     0.8840     3.9890 hc         1 BKQ       0.063033
     22 H12          7.9430    -0.8850     3.9890 hc         1 BKQ       0.063033
@<TRIPOS>BOND
     1     5     4 2
     2     7     8 1
     3     7     6 1
     4    10     8 1
     5     8     9 2
     6     4     6 1
     7     4     3 1
     8     2     3 1
     9     2     1 1
    10     1    11 1
    11     1    12 1
    12     1    13 1
    13     2    14 1
    14     2    15 1
    15     6    16 1
    16     6    17 1
    17     7    18 1
    18     7    19 1
    19    10    20 1
    20    10    21 1
    21    10    22 1
@<TRIPOS>SUBSTRUCTURE
     1 BKQ         1 TEMP              0 ****  ****    0 ROOT
