@<TRIPOS>MOLECULE
BKS
   35    38     1     0     0
SMALL
bcc


@<TRIPOS>ATOM
      1 C            0.0000     0.0000     0.0000 ca         1 BKS      -0.085000
      2 N            2.0780    -0.0000     3.6120 na         1 BKS       0.592800
      3 O            3.4770     1.0390     7.7850 o          1 BKS      -0.680500
      4 Cl           7.9480    -3.3990     8.1040 cl         1 BKS      -0.039400
      5 C1           1.3830     0.0000     0.0000 ca         1 BKS      -0.092500
      6 N1           0.9840     1.8750     4.8300 nc         1 BKS      -0.521100
      7 C2           2.0740     0.0000     1.1960 ca         1 BKS      -0.078000
      8 N2           1.8030     2.2850     6.9740 ns         1 BKS      -0.006400
      9 C3           1.3800     0.0000     2.3980 ca         1 BKS      -0.200200
     10 C4          -0.0080     0.0010     2.3940 ca         1 BKS      -0.078000
     11 C5          -0.6950     0.0000     1.1960 ca         1 BKS      -0.092500
     12 C6           3.0940    -0.8620     3.9300 cc         1 BKS      -0.318300
     13 C7           3.5460    -0.5850     5.1790 cd         1 BKS      -0.008000
     14 C8           2.7420     0.5400     5.6720 cd         1 BKS      -0.281600
     15 C9           1.8480     0.8630     4.6470 cc         1 BKS      -0.048900
     16 C10          0.9680     2.5590     5.9390 cd         1 BKS       0.321800
     17 C11          2.7090     1.2870     6.8710 c          1 BKS       0.641100
     18 C12          4.6360    -1.2810     5.9030 ca         1 BKS      -0.001000
     19 C13          4.6410    -2.6730     5.9890 ca         1 BKS      -0.069500
     20 C14          5.6580    -3.3170     6.6640 ca         1 BKS      -0.103000
     21 C15          6.6730    -2.5830     7.2560 ca         1 BKS      -0.031600
     22 C16          6.6730    -1.2010     7.1730 ca         1 BKS      -0.103000
     23 C17          5.6640    -0.5480     6.4950 ca         1 BKS      -0.069500
     24 H           -0.5400    -0.0000    -0.9390 ha         1 BKS       0.106000
     25 H1           1.9240    -0.0000    -0.9380 ha         1 BKS       0.108500
     26 H2           3.1570     0.0000     1.1960 ha         1 BKS       0.117500
     27 HN2          1.7580     2.8350     7.8100 hn         1 BKS       0.181500
     28 H4          -0.5530     0.0010     3.3300 ha         1 BKS       0.117500
     29 H5          -1.7780     0.0010     1.1920 ha         1 BKS       0.108500
     30 H6           3.4780    -1.6420     3.2850 h4         1 BKS       0.158000
     31 H10          0.2510     3.3640     6.0460 h5         1 BKS       0.005800
     32 H13          3.8480    -3.2480     5.5270 ha         1 BKS       0.112500
     33 H14          5.6630    -4.3980     6.7320 ha         1 BKS       0.113000
     34 H16          7.4710    -0.6320     7.6330 ha         1 BKS       0.113000
     35 H17          5.6650     0.5340     6.4310 ha         1 BKS       0.112500
@<TRIPOS>BOND
     1     1     5 ar  
     2     1    11 ar  
     3     1    24 1   
     4     2     9 1   
     5     2    12 1   
     6     2    15 1   
     7     3    17 2   
     8     4    21 1   
     9     5     7 ar  
    10     5    25 1   
    11     6    15 1   
    12     6    16 2   
    13     7     9 ar  
    14     7    26 1   
    15     8    16 1   
    16     8    17 1   
    17     8    27 1   
    18     9    10 ar  
    19    10    11 ar  
    20    10    28 1   
    21    11    29 1   
    22    12    13 2   
    23    12    30 1   
    24    13    14 1   
    25    13    18 1   
    26    14    15 2   
    27    14    17 1   
    28    16    31 1   
    29    18    19 ar  
    30    18    23 ar  
    31    19    20 ar  
    32    19    32 1   
    33    20    21 ar  
    34    20    33 1   
    35    21    22 ar  
    36    22    23 ar  
    37    22    34 1   
    38    23    35 1   
@<TRIPOS>SUBSTRUCTURE
     1 BKS         1 TEMP              0 ****  ****    0 ROOT
