@<TRIPOS>MOLECULE
BKV
   35    38     1     0     0
SMALL
bcc


@<TRIPOS>ATOM
      1 C            0.0000     0.0000     0.0000 ca         1 BKV      -0.101000
      2 N            3.5520    -0.5210     5.3060 na         1 BKV       0.587800
      3 O            0.1980     2.3270     4.2630 o          1 BKV      -0.678500
      4 Br           7.9920    -3.3840     8.2740 br         1 BKV      -0.117100
      5 C1           1.3840     0.0000     0.0000 ca         1 BKV      -0.106000
      6 N1           1.1100     2.5880     6.2900 ns         1 BKV      -0.005400
      7 C2           2.0760     0.0000     1.1940 ca         1 BKV      -0.077500
      8 N2           2.8500     1.1930     6.9690 nc         1 BKV      -0.524100
      9 C3           1.3790     0.0000     2.4010 ca         1 BKV      -0.007000
     10 C4          -0.0140     0.0010     2.3940 ca         1 BKV      -0.077500
     11 C5          -0.6970     0.0010     1.1950 ca         1 BKV      -0.106000
     12 C6           2.1170     0.0000     3.6860 cc         1 BKV       0.002000
     13 C7           3.1280    -0.8340     4.0430 cd         1 BKV      -0.324300
     14 C8           2.8280     0.5240     5.8050 cc         1 BKV      -0.049900
     15 C9           1.9010     0.9000     4.8250 cd         1 BKV      -0.281600
     16 C10          1.0190     1.9710     5.0910 c          1 BKV       0.640100
     17 C11          2.0300     2.1790     7.2000 cd         1 BKV       0.322800
     18 C12          4.5790    -1.1840     5.9920 ca         1 BKV      -0.189200
     19 C13          4.5760    -2.5690     6.0790 ca         1 BKV      -0.075500
     20 C14          5.5890    -3.2190     6.7560 ca         1 BKV      -0.074500
     21 C15          6.6060    -2.4910     7.3480 ca         1 BKV       0.041100
     22 C16          6.6110    -1.1100     7.2630 ca         1 BKV      -0.074500
     23 C17          5.6030    -0.4550     6.5810 ca         1 BKV      -0.075500
     24 H           -0.5400     0.0000    -0.9390 ha         1 BKV       0.099000
     25 H1           1.9240    -0.0010    -0.9390 ha         1 BKV       0.101000
     26 HN1          0.4980     3.3490     6.5070 hn         1 BKV       0.180500
     27 H2           3.1590    -0.0000     1.1930 ha         1 BKV       0.108500
     28 H4          -0.5610     0.0010     3.3300 ha         1 BKV       0.108500
     29 H5          -1.7800     0.0010     1.1890 ha         1 BKV       0.101000
     30 H7           3.5360    -1.6230     3.4230 h4         1 BKV       0.158000
     31 H11          2.0830     2.6890     8.1540 h5         1 BKV       0.005800
     32 H13          3.7810    -3.1400     5.6160 ha         1 BKV       0.122500
     33 H14          5.5880    -4.3000     6.8240 ha         1 BKV       0.121500
     34 H16          7.4100    -0.5420     7.7240 ha         1 BKV       0.121500
     35 H17          5.6060     0.6260     6.5150 ha         1 BKV       0.122500
@<TRIPOS>BOND
     1     1     5 ar  
     2     1    11 ar  
     3     1    24 1   
     4     2    13 1   
     5     2    14 1   
     6     2    18 1   
     7     3    16 2   
     8     4    21 1   
     9     5     7 ar  
    10     5    25 1   
    11     6    16 1   
    12     6    17 1   
    13     6    26 1   
    14     7     9 ar  
    15     7    27 1   
    16     8    14 1   
    17     8    17 2   
    18     9    10 ar  
    19     9    12 1   
    20    10    11 ar  
    21    10    28 1   
    22    11    29 1   
    23    12    13 2   
    24    12    15 1   
    25    13    30 1   
    26    14    15 2   
    27    15    16 1   
    28    17    31 1   
    29    18    19 ar  
    30    18    23 ar  
    31    19    20 ar  
    32    19    32 1   
    33    20    21 ar  
    34    20    33 1   
    35    21    22 ar  
    36    22    23 ar  
    37    22    34 1   
    38    23    35 1   
@<TRIPOS>SUBSTRUCTURE
     1 BKV         1 TEMP              0 ****  ****    0 ROOT
