@<TRIPOS>MOLECULE
molecule
   44    46     1     0     0
SMALL
bcc


@<TRIPOS>ATOM
      1 OP3          0.0000     0.0000     0.0000 o          1 BKW      -0.842300
      2 CZ           1.3430     0.0000     0.0000 c          1 BKW       0.922600
      3 OP2          1.9460     0.0000     1.0470 o          1 BKW      -0.842300
      4 C34          2.0970     0.0010    -1.3040 c3         1 BKW      -0.177100
      5 C29          3.5780     0.0010    -1.0280 ca         1 BKW       0.094700
      6 C30          4.2950     1.1800    -1.1010 ca         1 BKW      -0.152000
      7 C31          5.6540     1.1810    -0.8440 ca         1 BKW      -0.084000
      8 C32          6.2940     0.0020    -0.5110 ca         1 BKW      -0.186000
      9 C33          5.5780    -1.1770    -0.4360 ca         1 BKW      -0.032000
     10 C28          4.2200    -1.1780    -0.6950 ca         1 BKW      -0.282500
     11 S1           3.3050    -2.6800    -0.5940 sy         1 BKW       1.284600
     12 OS1          3.8410    -3.4040     0.5050 o          1 BKW      -0.600300
     13 OS2          1.9330    -2.3220    -0.6940 o          1 BKW      -0.600300
     14 C1           3.6800    -3.6180    -2.0380 ca         1 BKW      -0.290500
     15 C6           4.6760    -4.5780    -1.9970 ca         1 BKW      -0.027000
     16 C5           4.9740    -5.3150    -3.1250 ca         1 BKW      -0.153000
     17 C4           4.2700    -5.0910    -4.3060 cp         1 BKW       0.004000
     18 C3           3.2680    -4.1240    -4.3420 ca         1 BKW      -0.153000
     19 C2           2.9740    -3.3960    -3.2060 ca         1 BKW      -0.027000
     20 C7           4.5860    -5.8810    -5.5220 cp         1 BKW      -0.071000
     21 C12          3.8820    -5.6560    -6.7030 ca         1 BKW      -0.079500
     22 C11          4.1780    -6.3920    -7.8320 ca         1 BKW      -0.192000
     23 C10          5.1770    -7.3550    -7.7930 ca         1 BKW       0.136100
     24 O13          5.4670    -8.0770    -8.9050 os         1 BKW      -0.331900
     25 C14          6.5060    -9.0520    -8.7940 c3         1 BKW       0.129700
     26 C9           5.8810    -7.5810    -6.6170 ca         1 BKW      -0.192000
     27 C8           5.5930    -6.8440    -5.4870 ca         1 BKW      -0.079500
     28 H2           1.8360     0.8850    -1.8720 hc         1 BKW       0.054200
     29 H3           1.8360    -0.8840    -1.8730 hc         1 BKW       0.054200
     30 H4           3.7920     2.1040    -1.3620 ha         1 BKW       0.132000
     31 H5           6.2160     2.1050    -0.9010 ha         1 BKW       0.111000
     32 H6           7.3580     0.0030    -0.3090 ha         1 BKW       0.112000
     33 H7           6.0800    -2.1010    -0.1760 ha         1 BKW       0.122000
     34 H8           5.2220    -4.7510    -1.0770 ha         1 BKW       0.156000
     35 H9           5.7540    -6.0660    -3.0920 ha         1 BKW       0.128000
     36 H10          2.7160    -3.9480    -5.2580 ha         1 BKW       0.128000
     37 H11          2.1950    -2.6430    -3.2330 ha         1 BKW       0.156000
     38 H12          3.1020    -4.9050    -6.7340 ha         1 BKW       0.140000
     39 H13          3.6300    -6.2170    -8.7510 ha         1 BKW       0.136000
     40 H14          7.4320    -8.5630    -8.5160 h1         1 BKW       0.039033
     41 H15          6.6330    -9.5540    -9.7460 h1         1 BKW       0.039033
     42 H16          6.2390    -9.7790    -8.0360 h1         1 BKW       0.039033
     43 H17          6.6620    -8.3310    -6.5890 ha         1 BKW       0.136000
     44 H18          6.1420    -7.0210    -4.5700 ha         1 BKW       0.140000
@<TRIPOS>BOND
     1     7     8 ar
     2     7     6 ar
     3     8     9 ar
     4     6     5 ar
     5     9    10 ar
     6     5    10 ar
     7     5     4 1
     8    10    11 1
     9    13    11 2
    10     3     2 1
    11     4     2 1
    12    11    12 2
    13    11    14 1
    14     2     1 1
    15    19    14 ar
    16    19    18 ar
    17    14    15 ar
    18    18    17 ar
    19    15    16 ar
    20    17    16 ar
    21    17    20 1
    22    27    26 ar
    23    27    20 ar
    24    26    23 ar
    25    20    21 ar
    26    23    24 1
    27    23    22 ar
    28    21    22 ar
    29    24    25 1
    30     4    28 1
    31     4    29 1
    32     6    30 1
    33     7    31 1
    34     8    32 1
    35     9    33 1
    36    15    34 1
    37    16    35 1
    38    18    36 1
    39    19    37 1
    40    21    38 1
    41    22    39 1
    42    25    40 1
    43    25    41 1
    44    25    42 1
    45    26    43 1
    46    27    44 1
@<TRIPOS>SUBSTRUCTURE
     1 BKW         1 TEMP              0 ****  ****    0 ROOT
