@<TRIPOS>MOLECULE
molecule
   44    47     1     0     0
SMALL
bcc


@<TRIPOS>ATOM
      1 C1           0.0000     0.0000     0.0000 ca         1 BKY      -0.082600
      2 C2           1.3960     0.0000     0.0000 ca         1 BKY      -0.106500
      3 C3           2.0830     0.0000     1.1960 ca         1 BKY      -0.132500
      4 C4           1.3910     0.0000     2.3950 ca         1 BKY      -0.138300
      5 C5           0.0070     0.0000     2.4020 ca         1 BKY      -0.132500
      6 C6          -0.6920     0.0010     1.2130 ca         1 BKY      -0.106500
      7 C7           2.1470     0.0000     3.6980 c3         1 BKY       0.192700
      8 C8           3.0620     1.5250     5.2720 ca         1 BKY       0.193100
      9 C9           3.4920     0.4290     6.0030 ca         1 BKY      -0.239000
     10 C10          4.1800     0.6110     7.1860 ca         1 BKY      -0.065000
     11 C11          4.4470     1.8890     7.6560 ca         1 BKY      -0.189000
     12 C12          4.0300     2.9910     6.9470 ca         1 BKY      -0.022000
     13 C13          3.3350     2.8240     5.7400 ca         1 BKY      -0.162800
     14 C           -0.7410     0.0070    -1.2770 c          1 BKY       0.879200
     15 O           -1.9570     0.0120    -1.2740 o          1 BKY      -0.833300
     16 C14          2.8910     3.9910     4.9770 ce         1 BKY       0.128800
     17 C15          2.3480     5.0740     5.6290 cd         1 BKY      -0.356400
     18 C16          2.0010     6.3770     5.0320 c          1 BKY       0.596400
     19 C17          1.4470     7.2330     6.1090 ca         1 BKY      -0.144100
     20 C18          1.4460     6.5080     7.3130 ca         1 BKY      -0.144100
     21 C19          1.9940     5.1530     7.0580 c          1 BKY       0.596400
     22 C20          0.9680     7.1050     8.4750 ca         1 BKY      -0.078500
     23 C21          0.4970     8.4060     8.4430 ca         1 BKY      -0.123000
     24 C22          0.4980     9.1190     7.2590 ca         1 BKY      -0.123000
     25 C23          0.9700     8.5400     6.0930 ca         1 BKY      -0.078500
     26 O1          -0.0710     0.0060    -2.4460 o          1 BKY      -0.833300
     27 O2           2.3870     1.3480     4.1100 os         1 BKY      -0.313900
     28 O3           2.1450     6.6930     3.8670 o          1 BKY      -0.510100
     29 O4           2.1300     4.2690     7.8810 o          1 BKY      -0.510100
     30 H1           1.9390    -0.0010    -0.9380 ha         1 BKY       0.153500
     31 H2           3.1660    -0.0000     1.1970 ha         1 BKY       0.108500
     32 H3          -0.5290     0.0010     3.3430 ha         1 BKY       0.108500
     33 H4          -1.7750     0.0020     1.2200 ha         1 BKY       0.153500
     34 H5           3.0940    -0.5110     3.5660 h1         1 BKY       0.032700
     35 H6           1.5640    -0.5100     4.4550 h1         1 BKY       0.032700
     36 H7           3.2870    -0.5730     5.6460 ha         1 BKY       0.142000
     37 H8           4.5140    -0.2510     7.7520 ha         1 BKY       0.124000
     38 H9           4.9860     2.0190     8.5870 ha         1 BKY       0.127000
     39 H10          4.2430     3.9870     7.3170 ha         1 BKY       0.138000
     40 H11          3.1050     4.0520     3.9170 ha         1 BKY       0.167000
     41 H12          0.9650     6.5510     9.4060 ha         1 BKY       0.145000
     42 H13          0.1250     8.8680     9.3490 ha         1 BKY       0.131500
     43 H14          0.1270    10.1370     7.2430 ha         1 BKY       0.131500
     44 H15          0.9680     9.1050     5.1690 ha         1 BKY       0.145000
@<TRIPOS>BOND
     1    10     9 ar
     2    10    11 ar
     3     9     8 ar
     4    11    12 ar
     5     8    27 1
     6     8    13 ar
     7    12    13 ar
     8     3     2 ar
     9     3     4 ar
    10     7    27 1
    11     7     4 1
    12     2     1 ar
    13     4     5 ar
    14    13    16 1
    15     1     6 ar
    16     1    14 1
    17     5     6 ar
    18    15    14 1
    19    14    26 1
    20    16    17 2
    21    28    18 2
    22    17    18 1
    23    17    21 1
    24    18    19 1
    25    29    21 2
    26    21    20 1
    27    19    20 ar
    28    19    25 ar
    29    20    22 ar
    30    25    24 ar
    31    22    23 ar
    32    24    23 ar
    33     2    30 1
    34     3    31 1
    35     5    32 1
    36     6    33 1
    37     7    34 1
    38     7    35 1
    39     9    36 1
    40    10    37 1
    41    11    38 1
    42    12    39 1
    43    16    40 1
    44    22    41 1
    45    23    42 1
    46    24    43 1
    47    25    44 1
@<TRIPOS>SUBSTRUCTURE
     1 BKY         1 TEMP              0 ****  ****    0 ROOT
