@<TRIPOS>MOLECULE
molecule
   24    24     1     0     0
SMALL
bcc


@<TRIPOS>ATOM
      1 C01          0.0000     0.0000     0.0000 c3         1 BKZ      -0.196100
      2 C02          1.5070     0.0000     0.0000 c          1 BKZ       0.559100
      3 C04          2.2600     0.0000     1.3050 c3         1 BKZ      -0.180400
      4 C05          3.7640    -0.0000     1.0260 c3         1 BKZ      -0.025100
      5 C06          4.5170    -0.0000     2.3320 ca         1 BKZ      -0.095300
      6 C07          4.8570     1.1970     2.9330 ca         1 BKZ      -0.113000
      7 C08          5.5470     1.2000     4.1300 ca         1 BKZ      -0.150000
      8 C09          5.8990    -0.0020     4.7290 ca         1 BKZ       0.102100
      9 C11          5.5570    -1.2010     4.1240 ca         1 BKZ      -0.150000
     10 C12          4.8620    -1.1990     2.9300 ca         1 BKZ      -0.113000
     11 O03          2.1110     0.0000    -1.0450 o          1 BKZ      -0.526100
     12 O10          6.5770    -0.0010     5.9060 oh         1 BKZ      -0.523100
     13 H1          -0.3610    -0.8840     0.5110 hc         1 BKZ       0.061367
     14 H2          -0.3610    -0.0000    -1.0210 hc         1 BKZ       0.061367
     15 H3           1.9980     0.8850     1.8730 hc         1 BKZ       0.068700
     16 H4           1.9980    -0.8840     1.8730 hc         1 BKZ       0.068700
     17 H5           4.0260     0.8840     0.4580 hc         1 BKZ       0.061700
     18 H6           4.0260    -0.8850     0.4580 hc         1 BKZ       0.061700
     19 H7           4.5820     2.1350     2.4660 ha         1 BKZ       0.134000
     20 H8           5.8130     2.1390     4.6000 ha         1 BKZ       0.140000
     21 H9           5.8280    -2.1400     4.5900 ha         1 BKZ       0.140000
     22 H10          4.5940    -2.1360     2.4570 ha         1 BKZ       0.134000
     23 H11          7.5040     0.0020     5.7350 ho         1 BKZ       0.419000
     24 H12         -0.3610     0.8850     0.5100 hc         1 BKZ       0.061367
@<TRIPOS>BOND
     1     1     2 1
     2    11     2 2
     3     2     3 1
     4     3     4 1
     5     4     5 1
     6     6     5 ar
     7     6     7 ar
     8     5    10 ar
     9     7     8 ar
    10    10     9 ar
    11     8     9 ar
    12     8    12 1
    13     1    13 1
    14     1    14 1
    15     3    15 1
    16     3    16 1
    17     4    17 1
    18     4    18 1
    19     6    19 1
    20     7    20 1
    21     9    21 1
    22    10    22 1
    23    12    23 1
    24     1    24 1
@<TRIPOS>SUBSTRUCTURE
     1 BKZ         1 TEMP              0 ****  ****    0 ROOT
