@<TRIPOS>MOLECULE
BL0
   24    24     1     0     0
SMALL
bcc


@<TRIPOS>ATOM
      1 CA1          0.0000     0.0000     0.0000 c3         1 BL0       0.182600
      2 NA1          1.4650     0.0000     0.0000 nh         1 BL0      -0.343300
      3 CA2          2.1970     0.0000     1.2690 c3         1 BL0       0.182600
      4 CA3          2.1590     0.0010    -1.2010 cc         1 BL0       0.607300
      5 SA1          3.9130    -0.0040    -1.3900 ss         1 BL0      -0.375800
      6 NA2          1.6320     0.0020    -2.3920 nd         1 BL0      -0.408000
      7 NA3          2.4180     0.0020    -3.3790 nd         1 BL0      -0.137000
      8 CA4          3.6900     0.0020    -3.1410 cc         1 BL0       0.235700
      9 CA5          4.7850     0.0000    -4.1760 c3         1 BL0       0.083100
     10 SA2          5.2310     1.7100    -4.5850 s6         1 BL0       0.805900
     11 OA1          5.8680     2.3390    -3.4810 o          1 BL0      -0.485800
     12 NA4          6.4310     1.5640    -5.7180 nz         1 BL0      -0.152500
     13 OA2          4.1690     2.3500    -5.2800 o          1 BL0      -0.485800
     14 HA1         -0.3610    -0.9690    -0.3240 h1         1 BL0       0.030367
     15 HA1A        -0.3610     0.2030     1.0010 h1         1 BL0       0.030367
     16 HA1B        -0.3610     0.7650    -0.6770 h1         1 BL0       0.030367
     17 HA2          2.6260     0.9800     1.4390 h1         1 BL0       0.030367
     18 HA2A         1.5180    -0.2420     2.0780 h1         1 BL0       0.030367
     19 HA2B         2.9880    -0.7390     1.2300 h1         1 BL0       0.030367
     20 HA5          5.6530    -0.5150    -3.7830 h1         1 BL0       0.082200
     21 HA5A         4.4380    -0.5060    -5.0690 h1         1 BL0       0.082200
     22 HNA4         6.8070     2.4680    -5.9250 hn         1 BL0       0.314800
     23 HNAA         6.0540     1.1610    -6.5530 hn         1 BL0       0.314800
     24 HA43         7.1560     0.9740    -5.3610 hn         1 BL0       0.314800
@<TRIPOS>BOND
     1     1     2 1   
     2     1    14 1   
     3     1    15 1   
     4     1    16 1   
     5     2     3 1   
     6     2     4 1   
     7     3    17 1   
     8     3    18 1   
     9     3    19 1   
    10     4     5 1   
    11     4     6 2   
    12     5     8 1   
    13     6     7 1   
    14     7     8 2   
    15     8     9 1   
    16     9    10 1   
    17     9    20 1   
    18     9    21 1   
    19    10    11 2   
    20    10    12 1   
    21    10    13 2   
    22    12    22 1   
    23    12    23 1   
    24    12    24 1   
@<TRIPOS>SUBSTRUCTURE
     1 BL0         1 TEMP              0 ****  ****    0 ROOT
