@<TRIPOS>MOLECULE
BL1
   41    43     1     0     0
SMALL
bcc


@<TRIPOS>ATOM
      1 OAW          0.0000     0.0000     0.0000 o          1 BL1      -0.485800
      2 SAX          1.4210     0.0000     0.0000 sy         1 BL1       0.940200
      3 NAS          1.8880     0.0000     1.5890 nz         1 BL1      -0.145500
      4 OAV          2.1980    -0.9990    -0.6470 o          1 BL1      -0.485800
      5 CAO          1.9190     1.5430    -0.6900 ca         1 BL1      -0.227500
      6 CAM          2.8680     1.5750    -1.6890 ca         1 BL1       0.096000
      7 CAJ          1.3530     2.7210    -0.2310 ca         1 BL1       0.028400
      8 ClAQ         0.1530     2.6710     1.0230 cl         1 BL1       0.028600
      9 CAC          1.7390     3.9360    -0.7680 ca         1 BL1      -0.095000
     10 CAN          2.6910     3.9830    -1.7650 ca         1 BL1       0.017000
     11 CAL          3.2580     2.7980    -2.2390 ca         1 BL1      -0.152600
     12 CAK          4.2800     2.8400    -3.3060 c          1 BL1       0.566700
     13 OAU          4.7720     1.8080    -3.7170 o          1 BL1      -0.597100
     14 NAR          4.6660     4.0230    -3.8230 ns         1 BL1      -0.045300
     15 NAT          5.6340     4.0630    -4.8350 nh         1 BL1      -0.270000
     16 CAI          7.0290     4.4690    -4.6460 c3         1 BL1       0.163500
     17 CAP          7.7210     3.5440    -3.6440 c3         1 BL1      -0.020100
     18 CAA          5.4130     3.7150    -6.1690 ca         1 BL1       0.051600
     19 CAB          6.5600     3.8560    -6.9320 ca         1 BL1      -0.146300
     20 CAF          7.6780     4.3380    -6.0340 c3         1 BL1       0.047900
     21 CAD          4.2400     3.2680    -6.7830 ca         1 BL1      -0.143000
     22 CAH          4.2310     2.9740    -8.1300 ca         1 BL1      -0.059000
     23 CAG          5.3820     3.1180    -8.8830 ca         1 BL1      -0.139000
     24 CAE          6.5460     3.5610    -8.2810 ca         1 BL1      -0.038000
     25 H1AS         1.2470     0.5510     2.1250 hn         1 BL1       0.317133
     26 H2AS         1.8920    -0.9390     1.9350 hn         1 BL1       0.317133
     27 HAM          3.3050     0.6530    -2.0530 ha         1 BL1       0.164000
     28 HAC          1.2950     4.8540    -0.4020 ha         1 BL1       0.142000
     29 HAN          2.9910     4.9350    -2.1860 ha         1 BL1       0.126000
     30 HNAR         4.2510     4.8720    -3.4940 hn         1 BL1       0.174500
     31 HAI          7.0750     5.4980    -4.3090 h1         1 BL1       0.021700
     32 H1AP         7.5630     2.5130    -3.9360 hc         1 BL1       0.013700
     33 H2AP         8.7830     3.7570    -3.6300 hc         1 BL1       0.013700
     34 H3AP         7.3070     3.7070    -2.6570 hc         1 BL1       0.013700
     35 H1AF         8.0220     5.3090    -6.3690 hc         1 BL1       0.035700
     36 H2AF         8.4650     3.5950    -6.0000 hc         1 BL1       0.035700
     37 HAD          3.3330     3.1590    -6.2010 ha         1 BL1       0.094000
     38 HAH          3.3180     2.6280    -8.6010 ha         1 BL1       0.103000
     39 HAG          5.3530     2.9600    -9.9540 ha         1 BL1       0.112000
     40 HAE          7.3830     3.6280    -8.9650 ha         1 BL1       0.108000
     41 HAS3         2.8090     0.3830     1.6660 hn         1 BL1       0.317133
@<TRIPOS>BOND
     1     1     2 2   
     2     2     3 1   
     3     2     4 2   
     4     2     5 1   
     5     3    25 1   
     6     3    26 1   
     7     3    41 1   
     8     5     6 ar  
     9     5     7 ar  
    10     6    11 ar  
    11     6    27 1   
    12     7     8 1   
    13     7     9 ar  
    14     9    10 ar  
    15     9    28 1   
    16    10    11 ar  
    17    10    29 1   
    18    11    12 1   
    19    12    13 2   
    20    12    14 1   
    21    14    15 1   
    22    14    30 1   
    23    15    16 1   
    24    15    18 1   
    25    16    17 1   
    26    16    20 1   
    27    16    31 1   
    28    17    32 1   
    29    17    33 1   
    30    17    34 1   
    31    18    19 ar  
    32    18    21 ar  
    33    19    20 1   
    34    19    24 ar  
    35    20    35 1   
    36    20    36 1   
    37    21    22 ar  
    38    21    37 1   
    39    22    23 ar  
    40    22    38 1   
    41    23    24 ar  
    42    23    39 1   
    43    24    40 1   
@<TRIPOS>SUBSTRUCTURE
     1 BL1         1 TEMP              0 ****  ****    0 ROOT
