@<TRIPOS>MOLECULE
BL3
   75    78     1     0     0
SMALL
bcc


@<TRIPOS>ATOM
      1 NA           0.0000     0.0000     0.0000 na         1 BL3       0.401900
      2 NB          -2.5980    -0.9210    -0.4070 ns         1 BL3      -0.053100
      3 OB          -3.9870    -1.6420    -2.0550 o          1 BL3      -0.685500
      4 NC          -2.2220     1.4170    -2.5670 ns         1 BL3      -0.028100
      5 ND           0.3590     0.4490    -2.6700 nc         1 BL3      -0.603300
      6 C1A          1.3780     0.0000     0.0000 cc         1 BL3      -0.336100
      7 O1A          5.7940     2.6030     2.6450 o          1 BL3      -0.900300
      8 C1B         -2.7680    -0.3790     0.8580 cc         1 BL3      -0.150400
      9 C1C         -3.4770     1.7450    -2.2180 c          1 BL3       0.603700
     10 C1D          0.1820     0.5190    -3.9860 cd         1 BL3       0.420900
     11 C2A          1.8090     0.0000     1.3310 cd         1 BL3      -0.034300
     12 O2A          5.7290     0.3950     2.6250 o          1 BL3      -0.900300
     13 C2B         -4.2200    -0.2910     1.0900 cc         1 BL3       0.014000
     14 C2C         -4.3100     1.7310    -3.3470 cd         1 BL3      -0.217400
     15 C2D          1.4190     0.2550    -4.6230 cd         1 BL3      -0.302800
     16 C3A          0.6840     0.0000     2.1330 cd         1 BL3      -0.152300
     17 C3B         -4.8200    -0.7880    -0.0540 cd         1 BL3      -0.218400
     18 C3C         -3.5390     1.3790    -4.4440 cc         1 BL3      -0.014000
     19 C3D          2.3280     0.0280    -3.6390 cc         1 BL3      -0.037200
     20 C4A         -0.4330     0.0000     1.2990 cc         1 BL3      -0.282100
     21 C4B         -3.8020    -1.1650    -0.9490 c          1 BL3       0.619700
     22 C4C         -2.1760     1.1750    -3.9340 cc         1 BL3      -0.131400
     23 C4D          1.6380     0.1540    -2.4070 cc         1 BL3      -0.043400
     24 CAA          3.2410    -0.0000     1.8030 c3         1 BL3       0.050900
     25 CAB         -4.8960     0.2210     2.2930 ce         1 BL3      -0.084000
     26 CBA          3.7250     1.4420     1.9620 c3         1 BL3      -0.133400
     27 CBB         -5.7920     1.1980     2.1870 c2         1 BL3      -0.148000
     28 CBC         -5.1000     0.5530    -6.1100 c2         1 BL3      -0.163000
     29 CGA          5.1570     1.4410     2.4360 c          1 BL3       0.983600
     30 CGD          6.0730     0.6650    -3.9120 c          1 BL3       0.983600
     31 CHA          2.2000    -0.0010    -1.1310 cf         1 BL3       0.211800
     32 CHB         -1.7820     0.0000     1.7220 ce         1 BL3      -0.006200
     33 CMA          0.6680     0.0010     3.6390 c3         1 BL3       0.096200
     34 CMB         -6.3020    -0.9050    -0.2970 c3         1 BL3       0.095100
     35 CMD          1.6770     0.2310    -6.1070 c3         1 BL3       0.096100
     36 HNA         -0.5850    -0.0000    -0.8120 hn         1 BL3       0.157700
     37 HNB         -1.7170    -1.1030    -0.8460 hn         1 BL3       0.197500
     38 HNC         -1.4440     1.3570    -1.9410 hn         1 BL3       0.216500
     39 HAA          3.3060    -0.5110     2.7560 hc         1 BL3       0.032700
     40 HAAA         3.8610    -0.5110     1.0760 hc         1 BL3       0.032700
     41 HAB         -4.6910    -0.2240     3.2590 ha         1 BL3       0.100000
     42 HAC         -3.4500     1.7290    -6.6360 ha         1 BL3       0.102000
     43 HAD          4.1060    -0.9870    -3.0510 hc         1 BL3       0.028200
     44 HADA         3.9380    -0.7500    -4.7960 hc         1 BL3       0.028200
     45 HBA          3.1050     1.9530     2.6890 hc         1 BL3       0.010200
     46 HBAA         3.6600     1.9520     1.0090 hc         1 BL3       0.010200
     47 HBB         -6.2890     1.5750     3.0730 ha         1 BL3       0.090000
     48 HBBA        -5.9870     1.6530     1.2230 ha         1 BL3       0.090000
     49 HBC         -5.4350     0.4510    -7.1360 ha         1 BL3       0.087000
     50 HBCA        -5.6510     0.0720    -5.3110 ha         1 BL3       0.087000
     51 HBD          4.2960     1.6790    -4.5020 hc         1 BL3       0.012700
     52 HBDA         4.4630     1.4430    -2.7570 hc         1 BL3       0.012700
     53 HHA          3.2520    -0.2400    -1.0300 ha         1 BL3       0.150000
     54 HHB         -2.0420     0.4140     2.6890 ha         1 BL3       0.125000
     55 HHD         -1.1700     0.6550    -5.7300 ha         1 BL3       0.113000
     56 HMA          0.6530     1.0230     4.0000 hc         1 BL3       0.004367
     57 HMAA         1.5540    -0.4990     4.0100 hc         1 BL3       0.004367
     58 HMAB        -0.2140    -0.5190     3.9910 hc         1 BL3       0.004367
     59 HMB         -6.7240     0.0820    -0.4380 hc         1 BL3       0.005700
     60 HMBA        -6.7720    -1.3800     0.5560 hc         1 BL3       0.005700
     61 HMBB        -6.4760    -1.5020    -1.1840 hc         1 BL3       0.005700
     62 HMC         -6.3490     1.1180    -3.3900 hc         1 BL3       0.005700
     63 HMCA        -6.0180     2.6340    -4.2400 hc         1 BL3       0.005700
     64 HMCB        -6.0460     2.6000    -2.4720 hc         1 BL3       0.005700
     65 HMD          1.4580    -0.7560    -6.4960 hc         1 BL3      -0.000300
     66 HMDA         1.0430     0.9610    -6.5950 hc         1 BL3      -0.000300
     67 HMDB         2.7160     0.4720    -6.2970 hc         1 BL3      -0.000300
     68 CAD          3.7890    -0.2970    -3.8240 c3         1 BL3       0.043800
     69 CAC         -3.9940     1.2400    -5.8370 ce         1 BL3      -0.071000
     70 OC          -3.8400     2.0140    -1.0850 o          1 BL3      -0.703500
     71 CBD          4.6130     0.9890    -3.7290 c3         1 BL3      -0.132400
     72 CHD         -1.0800     0.8170    -4.6620 cf         1 BL3      -0.107600
     73 CMC         -5.7840     2.0430    -3.3630 c3         1 BL3       0.093100
     74 O1D          6.4180    -0.4780    -4.1010 o          1 BL3      -0.903300
     75 O2D          6.9880     1.6460    -3.8680 o          1 BL3      -0.903300
@<TRIPOS>BOND
     1     1     6 1   
     2     1    20 1   
     3     1    36 1   
     4     2     8 1   
     5     2    21 1   
     6     2    37 1   
     7     3    21 2   
     8     4     9 1   
     9     4    22 1   
    10     4    38 1   
    11     5    10 2   
    12     5    23 1   
    13     6    11 2   
    14     6    31 1   
    15     7    29 1   
    16     8    13 1   
    17     8    32 2   
    18     9    14 1   
    19     9    70 2   
    20    10    15 1   
    21    10    72 1   
    22    11    16 1   
    23    11    24 1   
    24    12    29 1   
    25    13    17 2   
    26    13    25 1   
    27    14    18 2   
    28    14    73 1   
    29    15    19 2   
    30    15    35 1   
    31    16    20 2   
    32    16    33 1   
    33    17    21 1   
    34    17    34 1   
    35    18    22 1   
    36    18    69 1   
    37    19    23 1   
    38    19    68 1   
    39    20    32 1   
    40    22    72 2   
    41    23    31 2   
    42    24    26 1   
    43    24    39 1   
    44    24    40 1   
    45    25    27 2   
    46    25    41 1   
    47    26    29 1   
    48    26    45 1   
    49    26    46 1   
    50    27    47 1   
    51    27    48 1   
    52    28    49 1   
    53    28    50 1   
    54    28    69 2   
    55    30    71 1   
    56    30    74 1   
    57    30    75 1   
    58    31    53 1   
    59    32    54 1   
    60    33    56 1   
    61    33    57 1   
    62    33    58 1   
    63    34    59 1   
    64    34    60 1   
    65    34    61 1   
    66    35    65 1   
    67    35    66 1   
    68    35    67 1   
    69    42    69 1   
    70    43    68 1   
    71    44    68 1   
    72    51    71 1   
    73    52    71 1   
    74    55    72 1   
    75    62    73 1   
    76    63    73 1   
    77    64    73 1   
    78    68    71 1   
@<TRIPOS>SUBSTRUCTURE
     1 BL3         1 TEMP              0 ****  ****    0 ROOT
