@<TRIPOS>MOLECULE
molecule
   75    78     1     0     0
SMALL
bcc


@<TRIPOS>ATOM
      1 NA           0.0000     0.0000     0.0000 na         1 BL3      -0.141100
      2 NB          -2.5980    -0.9210    -0.4070 ns         1 BL3      -0.477100
      3 OB          -3.9870    -1.6420    -2.0550 o          1 BL3      -0.641500
      4 NC          -2.2220     1.4170    -2.5670 ns         1 BL3      -0.454100
      5 ND           0.3590     0.4490    -2.6700 nc         1 BL3      -0.676300
      6 C1A          1.3780     0.0000     0.0000 cc         1 BL3      -0.133100
      7 O1A          5.7940     2.6030     2.6450 o          1 BL3      -0.850300
      8 C1B         -2.7680    -0.3790     0.8580 cc         1 BL3      -0.008400
      9 C1C         -3.4770     1.7450    -2.2180 c          1 BL3       0.707700
     10 C1D          0.1820     0.5190    -3.9860 cd         1 BL3       0.447900
     11 C2A          1.8090     0.0000     1.3310 cd         1 BL3      -0.041300
     12 O2A          5.7290     0.3950     2.6250 o          1 BL3      -0.850300
     13 C2B         -4.2200    -0.2910     1.0900 cc         1 BL3       0.031000
     14 C2C         -4.3100     1.7310    -3.3470 cd         1 BL3      -0.243400
     15 C2D          1.4190     0.2550    -4.6230 cd         1 BL3      -0.289800
     16 C3A          0.6840     0.0000     2.1330 cd         1 BL3      -0.146300
     17 C3B         -4.8200    -0.7880    -0.0540 cd         1 BL3      -0.238400
     18 C3C         -3.5390     1.3790    -4.4440 cc         1 BL3       0.011000
     19 C3D          2.3280     0.0280    -3.6390 cc         1 BL3      -0.049200
     20 C4A         -0.4330     0.0000     1.2990 cc         1 BL3      -0.083100
     21 C4B         -3.8020    -1.1650    -0.9490 c          1 BL3       0.716700
     22 C4C         -2.1760     1.1750    -3.9340 cc         1 BL3      -0.001400
     23 C4D          1.6380     0.1540    -2.4070 cc         1 BL3       0.013600
     24 CAA          3.2410    -0.0000     1.8030 c3         1 BL3      -0.012100
     25 CAB         -4.8960     0.2210     2.2930 ce         1 BL3      -0.103000
     26 CBA          3.7250     1.4420     1.9620 c3         1 BL3      -0.179400
     27 CBB         -5.7920     1.1980     2.1870 c2         1 BL3      -0.212000
     28 CBC         -5.1000     0.5530    -6.1100 c2         1 BL3      -0.220000
     29 CGA          5.1570     1.4410     2.4360 c          1 BL3       0.895600
     30 CGD          6.0730     0.6650    -3.9120 c          1 BL3       0.893600
     31 CHA          2.2000    -0.0010    -1.1310 cf         1 BL3       0.132800
     32 CHB         -1.7820     0.0000     1.7220 ce         1 BL3      -0.055200
     33 CMA          0.6680     0.0010     3.6390 c3         1 BL3      -0.015800
     34 CMB         -6.3020    -0.9050    -0.2970 c3         1 BL3      -0.019900
     35 CMD          1.6770     0.2310    -6.1070 c3         1 BL3      -0.013900
     36 HNA         -0.5850    -0.0000    -0.8120 hn         1 BL3       0.324700
     37 HNB         -1.7170    -1.1030    -0.8460 hn         1 BL3       0.354500
     38 HNC         -1.4440     1.3570    -1.9410 hn         1 BL3       0.372500
     39 HAA          3.3060    -0.5110     2.7560 hc         1 BL3       0.062200
     40 HAAA         3.8610    -0.5110     1.0760 hc         1 BL3       0.062200
     41 HAB         -5.4240    -0.7240     2.2370 ha         1 BL3       0.097000
     42 HAC         -4.2700     2.2800    -5.7130 ha         1 BL3       0.105000
     43 HAD          4.1060    -0.9870    -3.0510 hc         1 BL3       0.055700
     44 HADA         3.9380    -0.7500    -4.7960 hc         1 BL3       0.055700
     45 HBA          3.1050     1.9530     2.6890 hc         1 BL3       0.035700
     46 HBAA         3.6600     1.9520     1.0090 hc         1 BL3       0.035700
     47 HBB         -6.6350     0.9010     1.5750 ha         1 BL3       0.130500
     48 HBBA        -5.5620     1.8610     1.3620 ha         1 BL3       0.130500
     49 HBC         -5.9700     0.9980    -5.6420 ha         1 BL3       0.123000
     50 HBCA        -5.2460    -0.2390    -5.3860 ha         1 BL3       0.123000
     51 HBD          4.2960     1.6790    -4.5020 hc         1 BL3       0.037700
     52 HBDA         4.4630     1.4430    -2.7570 hc         1 BL3       0.037700
     53 HHA          3.2520    -0.2400    -1.0300 ha         1 BL3       0.194000
     54 HHB         -2.0420     0.4140     2.6890 ha         1 BL3       0.164000
     55 HHD         -1.1700     0.6550    -5.7300 ha         1 BL3       0.152000
     56 HMA         -0.2120    -0.5230     3.9910 hc         1 BL3       0.040367
     57 HMAA         0.6470     1.0230     3.9990 hc         1 BL3       0.040367
     58 HMAB         1.5570    -0.4950     4.0100 hc         1 BL3       0.040367
     59 HMB         -6.7270     0.0830    -0.4240 hc         1 BL3       0.042033
     60 HMBA        -6.4760    -1.4910    -1.1920 hc         1 BL3       0.042033
     61 HMBB        -6.7700    -1.3920     0.5500 hc         1 BL3       0.042033
     62 HMC         -6.0580     2.5440    -2.4420 hc         1 BL3       0.041033
     63 HMCA        -6.3470     1.1220    -3.4540 hc         1 BL3       0.041033
     64 HMCB        -6.0080     2.6870    -4.2050 hc         1 BL3       0.041033
     65 HMD          0.7840    -0.0990    -6.6230 hc         1 BL3       0.032700
     66 HMDA         1.9410     1.2270    -6.4430 hc         1 BL3       0.032700
     67 HMDB         2.4920    -0.4500    -6.3210 hc         1 BL3       0.032700
     68 CAD          3.7890    -0.2970    -3.8240 c3         1 BL3      -0.018200
     69 CAC         -3.9940     1.2400    -5.8370 ce         1 BL3      -0.095000
     70 OC          -3.8400     2.0140    -1.0850 o          1 BL3      -0.661500
     71 CBD          4.6130     0.9890    -3.7290 c3         1 BL3      -0.177400
     72 CHD         -1.0800     0.8170    -4.6620 cf         1 BL3      -0.131600
     73 CMC         -5.7840     2.0430    -3.3630 c3         1 BL3      -0.021900
     74 O1D          6.4180    -0.4780    -4.1010 o          1 BL3      -0.853800
     75 O2D          6.9880     1.6460    -3.8680 o          1 BL3      -0.853800
@<TRIPOS>BOND
     1     1     6 1
     2     1    20 1
     3     2     8 1
     4     2    21 1
     5     3    21 2
     6     4     9 1
     7     4    22 1
     8    70     9 2
     9     5    10 2
    10     5    23 1
    11     6    11 2
    12     6    31 1
    13     7    29 1
    14     8    13 1
    15     8    32 2
    16     9    14 1
    17    10    15 1
    18    10    72 1
    19    74    30 1
    20    11    16 1
    21    11    24 1
    22    12    29 1
    23    13    17 2
    24    13    25 1
    25    14    18 2
    26    14    73 1
    27    15    19 2
    28    15    35 1
    29    75    30 1
    30    16    20 2
    31    16    33 1
    32    17    21 1
    33    17    34 1
    34    18    22 1
    35    18    69 1
    36    19    23 1
    37    19    68 1
    38    20    32 1
    39    22    72 2
    40    23    31 2
    41    24    26 1
    42    25    27 2
    43    69    28 2
    44    68    71 1
    45    26    29 1
    46    71    30 1
    47     1    36 1
    48     2    37 1
    49     4    38 1
    50    24    39 1
    51    24    40 1
    52    25    41 1
    53    69    42 1
    54    68    43 1
    55    68    44 1
    56    26    45 1
    57    26    46 1
    58    27    47 1
    59    27    48 1
    60    28    49 1
    61    28    50 1
    62    71    51 1
    63    71    52 1
    64    31    53 1
    65    32    54 1
    66    72    55 1
    67    33    56 1
    68    33    57 1
    69    33    58 1
    70    34    59 1
    71    34    60 1
    72    34    61 1
    73    73    62 1
    74    73    63 1
    75    73    64 1
    76    35    65 1
    77    35    66 1
    78    35    67 1
@<TRIPOS>SUBSTRUCTURE
     1 BL3         1 TEMP              0 ****  ****    0 ROOT
