@<TRIPOS>MOLECULE
BL4
   38    41     1     0     0
SMALL
bcc


@<TRIPOS>ATOM
      1 O2           0.0000     0.0000     0.0000 o          1 BL4      -0.542100
      2 C4           1.2130     0.0000     0.0000 c          1 BL4       0.619700
      3 C3           2.0200     0.0000     1.2850 c3         1 BL4      -0.015500
      4 O1           2.4030    -1.3190     1.6820 oh         1 BL4      -0.541800
      5 C2           1.2310     0.7370     2.3890 c3         1 BL4      -0.057400
      6 C1           2.3460     1.5000     3.1370 c3         1 BL4       0.141800
      7 N1           3.5220     1.4950     2.2530 nh         1 BL4      -0.197000
      8 C12          4.7780     2.0040     2.5930 ca         1 BL4       0.025600
      9 C17          4.9840     2.5690     3.8460 ca         1 BL4      -0.150000
     10 C16          6.2270     3.0720     4.1780 ca         1 BL4      -0.069500
     11 C15          7.2650     3.0150     3.2660 ca         1 BL4      -0.130000
     12 C14          7.0620     2.4540     2.0190 ca         1 BL4      -0.069500
     13 C13          5.8240     1.9430     1.6820 ca         1 BL4      -0.150000
     14 C11          3.2120     0.9220     1.0580 c2         1 BL4       0.473200
     15 N2           3.8030     1.0970    -0.0890 ne         1 BL4      -0.550100
     16 C10          3.2940     0.5630    -1.2350 ca         1 BL4       0.193400
     17 C5           1.9980    -0.0070    -1.2470 ca         1 BL4      -0.248600
     18 C9           4.0440     0.5650    -2.4120 ca         1 BL4      -0.116000
     19 C8           3.5160     0.0220    -3.5630 ca         1 BL4      -0.052000
     20 C7           2.2430    -0.5300    -3.5720 ca         1 BL4      -0.141000
     21 C6           1.4830    -0.5510    -2.4220 ca         1 BL4       0.001700
     22 C18          0.1030    -1.1580    -2.4370 c3         1 BL4       0.048200
     23 HO1          1.6360    -1.8640     1.7420 ho         1 BL4       0.405000
     24 H2           0.8100    -0.0010     3.0610 hc         1 BL4       0.050700
     25 H2A          0.5770     1.4610     1.9190 hc         1 BL4       0.050700
     26 H1           2.5970     0.9320     4.0250 h1         1 BL4       0.035700
     27 H1A          2.0230     2.5270     3.2540 h1         1 BL4       0.035700
     28 H17          4.1720     2.6140     4.5610 ha         1 BL4       0.131500
     29 H16          6.3890     3.5120     5.1550 ha         1 BL4       0.102000
     30 H15          8.2380     3.4120     3.5290 ha         1 BL4       0.103000
     31 H14          7.8780     2.4080     1.3070 ha         1 BL4       0.102000
     32 H13          5.6660     1.5040     0.7040 ha         1 BL4       0.131500
     33 H9           5.0390     0.9930    -2.4210 ha         1 BL4       0.119000
     34 H8           4.1010     0.0310    -4.4750 ha         1 BL4       0.101000
     35 H7           1.8460    -0.9520    -4.4870 ha         1 BL4       0.111000
     36 H18          0.0280    -1.9030    -1.6540 hc         1 BL4       0.017033
     37 H18A        -0.6340    -0.3820    -2.2680 hc         1 BL4       0.017033
     38 H18B        -0.0770    -1.6240    -3.3980 hc         1 BL4       0.017033
@<TRIPOS>BOND
     1     1     2 2   
     2     2     3 1   
     3     2    17 1   
     4     3     4 1   
     5     3     5 1   
     6     3    14 1   
     7     4    23 1   
     8     5     6 1   
     9     5    24 1   
    10     5    25 1   
    11     6     7 1   
    12     6    26 1   
    13     6    27 1   
    14     7     8 1   
    15     7    14 1   
    16     8     9 ar  
    17     8    13 ar  
    18     9    10 ar  
    19     9    28 1   
    20    10    11 ar  
    21    10    29 1   
    22    11    12 ar  
    23    11    30 1   
    24    12    13 ar  
    25    12    31 1   
    26    13    32 1   
    27    14    15 2   
    28    15    16 1   
    29    16    17 ar  
    30    16    18 ar  
    31    17    21 ar  
    32    18    19 ar  
    33    18    33 1   
    34    19    20 ar  
    35    19    34 1   
    36    20    21 ar  
    37    20    35 1   
    38    21    22 1   
    39    22    36 1   
    40    22    37 1   
    41    22    38 1   
@<TRIPOS>SUBSTRUCTURE
     1 BL4         1 TEMP              0 ****  ****    0 ROOT
