@<TRIPOS>MOLECULE
BL5
  114   115     1     0     0
SMALL
bcc


@<TRIPOS>ATOM
      1 C5           0.0000     0.0000     0.0000 ca         1 BL5      -0.108000
      2 C4           1.3810     0.0000     0.0000 ca         1 BL5      -0.077750
      3 C3           2.0740     0.0000     1.1970 ca         1 BL5      -0.092000
      4 C2           1.3870     0.0060     2.3970 ca         1 BL5      -0.077750
      5 C1           0.0060     0.0120     2.4040 ca         1 BL5      -0.108000
      6 C6          -0.6920     0.0120     1.2040 ca         1 BL5      -0.118900
      7 N7          -2.0920     0.0180     1.2080 ns         1 BL5      -0.008600
      8 C8          -2.7710    -0.6360     0.2440 c          1 BL5       0.543600
      9 O9          -2.1730    -1.3110    -0.5680 o          1 BL5      -0.626600
     10 C10         -4.2730    -0.5290     0.1750 c3         1 BL5      -0.056800
     11 C11         -4.8810    -1.0520     1.4770 c3         1 BL5      -0.033900
     12 C12         -6.3950    -0.8300     1.4590 c3         1 BL5      -0.037400
     13 C13         -7.0040    -1.3530     2.7610 c3         1 BL5      -0.035900
     14 C14         -8.5170    -1.1300     2.7420 c3         1 BL5      -0.051700
     15 N15         -9.1020    -1.6330     3.9930 nz         1 BL5       0.085900
     16 N16         -4.7680    -1.3240    -0.9510 ns         1 BL5      -0.174900
     17 C17         -5.9460    -1.0140    -1.5290 c          1 BL5       0.579100
     18 O18         -6.5960    -0.0760    -1.1150 o          1 BL5      -0.669600
     19 C19         -6.4560    -1.8320    -2.6860 c3         1 BL5      -0.124200
     20 C20         -6.6310    -3.2860    -2.2450 c3         1 BL5      -0.015900
     21 C21         -6.9910    -4.1470    -3.4580 c3         1 BL5      -0.055400
     22 C22         -7.0600    -5.6170    -3.0380 c3         1 BL5      -0.024400
     23 C23         -7.4190    -6.4780    -4.2510 c3         1 BL5       0.007900
     24 C24         -7.8020    -1.2740    -3.1520 c3         1 BL5       0.158300
     25 N25         -8.2180    -1.9600    -4.3820 n7         1 BL5      -0.442000
     26 N26         -9.4970    -1.3860    -4.7690 n7         1 BL5      -0.442000
     27 C27         -9.9130    -2.0720    -5.9990 c3         1 BL5       0.158300
     28 C32        -11.3130    -1.6020    -6.3970 c3         1 BL5      -0.124200
     29 C31        -11.7730    -2.3660    -7.6410 c3         1 BL5      -0.015900
     30 C30        -11.9240    -3.8500    -7.3010 c3         1 BL5      -0.055400
     31 C29        -12.2720    -4.6300    -8.5700 c3         1 BL5      -0.024400
     32 C28        -12.4230    -6.1150    -8.2290 c3         1 BL5       0.007900
     33 C34        -11.2800    -0.1260    -6.6990 c          1 BL5       0.579100
     34 O33        -10.2390     0.4900    -6.6030 o          1 BL5      -0.669600
     35 N35        -12.4080     0.5110    -7.0720 ns         1 BL5      -0.174900
     36 C41        -12.3750     1.9470    -7.3650 c3         1 BL5      -0.056800
     37 C40        -11.9460     2.1610    -8.8180 c3         1 BL5      -0.033900
     38 C39        -10.5060     1.6800    -9.0010 c3         1 BL5      -0.037400
     39 C38        -10.0770     1.8940   -10.4530 c3         1 BL5      -0.035900
     40 C37         -8.6360     1.4120   -10.6370 c3         1 BL5      -0.051700
     41 N36         -8.2240     1.6180   -12.0310 nz         1 BL5       0.085900
     42 C43        -13.7470     2.5330    -7.1550 c          1 BL5       0.543600
     43 O42        -14.6630     1.8210    -6.7960 o          1 BL5      -0.626600
     44 N44        -13.9590     3.8470    -7.3650 ns         1 BL5      -0.008600
     45 C45        -15.2020     4.4130    -7.0610 ca         1 BL5      -0.118900
     46 C46        -15.7020     5.4490    -7.8380 ca         1 BL5      -0.108000
     47 C47        -16.9300     6.0070    -7.5350 ca         1 BL5      -0.077750
     48 C48        -17.6590     5.5340    -6.4600 ca         1 BL5      -0.092000
     49 C49        -17.1620     4.5030    -5.6830 ca         1 BL5      -0.077750
     50 C50        -15.9390     3.9370    -5.9850 ca         1 BL5      -0.108000
     51 H5          -0.5420     0.0000    -0.9380 ha         1 BL5       0.116000
     52 H4           1.9230    -0.0070    -0.9380 ha         1 BL5       0.110000
     53 H3           3.1580    -0.0020     1.1940 ha         1 BL5       0.112000
     54 H2           1.9330     0.0060     3.3330 ha         1 BL5       0.110000
     55 H1          -0.5310     0.0190     3.3450 ha         1 BL5       0.116000
     56 HN7         -2.5880     0.5490     1.8960 hn         1 BL5       0.163500
     57 H10         -4.5550     0.5080     0.0360 h1         1 BL5       0.070700
     58 H111        -4.4490    -0.5220     2.3170 hc         1 BL5       0.025950
     59 H112        -4.6730    -2.1110     1.5730 hc         1 BL5       0.025950
     60 H121        -6.6030     0.2290     1.3630 hc         1 BL5       0.050700
     61 H122        -6.8280    -1.3600     0.6190 hc         1 BL5       0.050700
     62 H131        -6.7960    -2.4120     2.8570 hc         1 BL5       0.031200
     63 H132        -6.5710    -0.8230     3.6010 hc         1 BL5       0.031200
     64 H141        -8.9500    -1.6600     1.9020 hx         1 BL5       0.087700
     65 H142        -8.7250    -0.0710     2.6460 hx         1 BL5       0.087700
     66 H151        -8.9100    -2.6110     4.0810 hn         1 BL5       0.223800
     67 H152        -8.7020    -1.1430     4.7680 hn         1 BL5       0.223800
     68 H16         -4.2120    -2.0700    -1.3180 hn         1 BL5       0.212000
     69 H19         -5.7440    -1.7850    -3.5020 hc         1 BL5       0.051200
     70 H201        -7.4250    -3.3480    -1.5110 hc         1 BL5       0.012450
     71 H202        -5.7070    -3.6450    -1.8090 hc         1 BL5       0.012450
     72 H211        -6.2340    -4.0260    -4.2240 hc         1 BL5       0.032200
     73 H212        -7.9520    -3.8380    -3.8490 hc         1 BL5       0.032200
     74 H221        -6.0980    -5.9270    -2.6470 hc         1 BL5       0.009700
     75 H222        -7.8160    -5.7390    -2.2720 hc         1 BL5       0.009700
     76 H231        -8.4520    -6.3030    -4.5250 hc         1 BL5       0.004367
     77 H232        -7.2830    -7.5240    -4.0040 hc         1 BL5       0.004367
     78 H233        -6.7760    -6.2170    -5.0820 hc         1 BL5       0.004367
     79 H241        -8.5450    -1.4340    -2.3800 h1         1 BL5       0.024700
     80 H242        -7.7050    -0.2120    -3.3450 h1         1 BL5       0.024700
     81 H25         -7.5450    -1.7900    -5.1030 hn         1 BL5       0.270300
     82 H26        -10.1700    -1.5550    -4.0480 hn         1 BL5       0.270300
     83 H271        -9.9260    -3.1420    -5.8290 h1         1 BL5       0.024700
     84 H272        -9.2150    -1.8420    -6.7950 h1         1 BL5       0.024700
     85 H32        -12.0020    -1.7890    -5.5830 hc         1 BL5       0.051200
     86 H311       -12.7270    -1.9730    -7.9730 hc         1 BL5       0.012450
     87 H312       -11.0400    -2.2480    -8.4290 hc         1 BL5       0.012450
     88 H301       -12.7150    -3.9750    -6.5710 hc         1 BL5       0.032200
     89 H302       -10.9930    -4.2230    -6.8920 hc         1 BL5       0.032200
     90 H291       -13.2030    -4.2570    -8.9800 hc         1 BL5       0.009700
     91 H292       -11.4810    -4.5050    -9.3000 hc         1 BL5       0.009700
     92 H281       -11.4940    -6.4860    -7.8150 hc         1 BL5       0.004367
     93 H282       -13.2180    -6.2400    -7.5040 hc         1 BL5       0.004367
     94 H283       -12.6650    -6.6690    -9.1290 hc         1 BL5       0.004367
     95 H35        -13.2750     0.0130    -7.1090 hn         1 BL5       0.212000
     96 H41        -11.6690     2.4340    -6.7050 h1         1 BL5       0.070700
     97 H401       -12.6010     1.6000    -9.4740 hc         1 BL5       0.025950
     98 H402       -12.0080     3.2150    -9.0610 hc         1 BL5       0.025950
     99 H391       -10.4440     0.6260    -8.7580 hc         1 BL5       0.050700
    100 H392        -9.8520     2.2410    -8.3450 hc         1 BL5       0.050700
    101 H381       -10.1380     2.9480   -10.6960 hc         1 BL5       0.031200
    102 H382       -10.7320     1.3340   -11.1100 hc         1 BL5       0.031200
    103 H371        -7.9810     1.9720    -9.9800 hx         1 BL5       0.087700
    104 H372        -8.5750     0.3580   -10.3940 hx         1 BL5       0.087700
    105 H361        -8.8300     1.1010   -12.6380 hn         1 BL5       0.223800
    106 H362        -7.2820     1.3020   -12.1510 hn         1 BL5       0.223800
    107 H44        -13.2180     4.4240    -7.7090 hn         1 BL5       0.163500
    108 H46        -15.1310     5.8200    -8.6810 ha         1 BL5       0.116000
    109 H47        -17.3220     6.8150    -8.1410 ha         1 BL5       0.110000
    110 H48        -18.6200     5.9750    -6.2230 ha         1 BL5       0.112000
    111 H49        -17.7370     4.1330    -4.8420 ha         1 BL5       0.110000
    112 H50        -15.5500     3.1300    -5.3760 ha         1 BL5       0.116000
    113 H153       -10.0930    -1.4930     3.9780 hn         1 BL5       0.223800
    114 H363        -8.2760     2.5920   -12.2540 hn         1 BL5       0.223800
@<TRIPOS>BOND
     1     1     2 ar  
     2     1     6 ar  
     3     1    51 1   
     4     2     3 ar  
     5     2    52 1   
     6     3     4 ar  
     7     3    53 1   
     8     4     5 ar  
     9     4    54 1   
    10     5     6 ar  
    11     5    55 1   
    12     6     7 1   
    13     7     8 1   
    14     7    56 1   
    15     8     9 2   
    16     8    10 1   
    17    10    11 1   
    18    10    16 1   
    19    10    57 1   
    20    11    12 1   
    21    11    58 1   
    22    11    59 1   
    23    12    13 1   
    24    12    60 1   
    25    12    61 1   
    26    13    14 1   
    27    13    62 1   
    28    13    63 1   
    29    14    15 1   
    30    14    64 1   
    31    14    65 1   
    32    15    66 1   
    33    15    67 1   
    34    15   113 1   
    35    16    17 1   
    36    16    68 1   
    37    17    18 2   
    38    17    19 1   
    39    19    20 1   
    40    19    24 1   
    41    19    69 1   
    42    20    21 1   
    43    20    70 1   
    44    20    71 1   
    45    21    22 1   
    46    21    72 1   
    47    21    73 1   
    48    22    23 1   
    49    22    74 1   
    50    22    75 1   
    51    23    76 1   
    52    23    77 1   
    53    23    78 1   
    54    24    25 1   
    55    24    79 1   
    56    24    80 1   
    57    25    26 1   
    58    25    81 1   
    59    26    27 1   
    60    26    82 1   
    61    27    28 1   
    62    27    83 1   
    63    27    84 1   
    64    28    29 1   
    65    28    33 1   
    66    28    85 1   
    67    29    30 1   
    68    29    86 1   
    69    29    87 1   
    70    30    31 1   
    71    30    88 1   
    72    30    89 1   
    73    31    32 1   
    74    31    90 1   
    75    31    91 1   
    76    32    92 1   
    77    32    93 1   
    78    32    94 1   
    79    33    34 2   
    80    33    35 1   
    81    35    36 1   
    82    35    95 1   
    83    36    37 1   
    84    36    42 1   
    85    36    96 1   
    86    37    38 1   
    87    37    97 1   
    88    37    98 1   
    89    38    39 1   
    90    38    99 1   
    91    38   100 1   
    92    39    40 1   
    93    39   101 1   
    94    39   102 1   
    95    40    41 1   
    96    40   103 1   
    97    40   104 1   
    98    41   105 1   
    99    41   106 1   
   100    41   114 1   
   101    42    43 2   
   102    42    44 1   
   103    44    45 1   
   104    44   107 1   
   105    45    46 ar  
   106    45    50 ar  
   107    46    47 ar  
   108    46   108 1   
   109    47    48 ar  
   110    47   109 1   
   111    48    49 ar  
   112    48   110 1   
   113    49    50 ar  
   114    49   111 1   
   115    50   112 1   
@<TRIPOS>SUBSTRUCTURE
     1 BL5         1 TEMP              0 ****  ****    0 ROOT
