@<TRIPOS>MOLECULE
BL6
   38    41     1     0     0
SMALL
bcc


@<TRIPOS>ATOM
      1 C5           0.0000     0.0000     0.0000 ca         1 BL6      -0.255600
      2 C4           1.4730     0.0000     0.0000 c          1 BL6       0.613700
      3 C3           2.1340     0.0000     1.3650 c3         1 BL6      -0.013500
      4 C2           3.4820    -0.7490     1.2830 c3         1 BL6      -0.050400
      5 C1           3.5200    -1.5090     2.6260 c3         1 BL6       0.141800
      6 C6          -0.7200     0.5490    -1.0600 ca         1 BL6      -0.011000
      7 C8          -2.7700    -0.0290     0.0500 ca         1 BL6      -0.044300
      8 C10         -0.6790    -0.5750     1.0970 ca         1 BL6       0.193400
      9 C11          1.3030    -0.9090     2.2610 c2         1 BL6       0.474200
     10 C12          1.7680    -2.0030     4.3990 ca         1 BL6       0.024600
     11 C13          2.7160    -2.5790     5.2360 ca         1 BL6      -0.149500
     12 C14          2.3380    -3.0770     6.4680 ca         1 BL6      -0.070000
     13 C17          0.4410    -1.9290     4.8060 ca         1 BL6      -0.149500
     14 O2           2.1170    -0.0010    -1.0280 o          1 BL6      -0.538100
     15 O1           2.2790     1.3190     1.8930 oh         1 BL6      -0.541800
     16 N1           2.1490    -1.4920     3.1560 nh         1 BL6      -0.191000
     17 C16          0.0700    -2.4300     6.0380 ca         1 BL6      -0.070000
     18 C15          1.0150    -3.0020     6.8680 ca         1 BL6      -0.130000
     19 N2           0.0210    -1.1160     2.1330 ne         1 BL6      -0.553100
     20 C9          -2.0750    -0.5820     1.1050 ca         1 BL6      -0.111000
     21 C18         -4.2760    -0.0390     0.0650 c3         1 BL6       0.057200
     22 C7          -2.0990     0.5320    -1.0270 ca         1 BL6      -0.140000
     23 H2           4.2810    -0.0170     1.2790 hc         1 BL6       0.051200
     24 H2A          3.4240    -1.4730     0.4800 hc         1 BL6       0.051200
     25 H1           4.1770    -0.9900     3.3130 h1         1 BL6       0.029700
     26 H1A          3.8240    -2.5340     2.4490 h1         1 BL6       0.029700
     27 H6          -0.2010     0.9880    -1.9030 ha         1 BL6       0.113000
     28 H13          3.7510    -2.6370     4.9230 ha         1 BL6       0.130500
     29 H14          3.0760    -3.5260     7.1200 ha         1 BL6       0.101500
     30 H17         -0.3010    -1.4810     4.1560 ha         1 BL6       0.130500
     31 HO1          2.5890     1.8970     1.2160 ho         1 BL6       0.405000
     32 H16         -0.9650    -2.3730     6.3550 ha         1 BL6       0.101500
     33 H15          0.7200    -3.3930     7.8340 ha         1 BL6       0.103000
     34 H9          -2.6090    -1.0820     1.9030 ha         1 BL6       0.122000
     35 H18         -4.6320    -1.0590    -0.0120 hc         1 BL6       0.010700
     36 H18A        -4.6500     0.5380    -0.7720 hc         1 BL6       0.010700
     37 H18B        -4.6310     0.3980     0.9910 hc         1 BL6       0.010700
     38 H7          -2.6620     0.9620    -1.8470 ha         1 BL6       0.111000
@<TRIPOS>BOND
     1     1     2 1   
     2     1     6 ar  
     3     1     8 ar  
     4     2     3 1   
     5     2    14 2   
     6     3     4 1   
     7     3     9 1   
     8     3    15 1   
     9     4     5 1   
    10     4    23 1   
    11     4    24 1   
    12     5    16 1   
    13     5    25 1   
    14     5    26 1   
    15     6    22 ar  
    16     6    27 1   
    17     7    20 ar  
    18     7    21 1   
    19     7    22 ar  
    20     8    19 1   
    21     8    20 ar  
    22     9    16 1   
    23     9    19 2   
    24    10    11 ar  
    25    10    13 ar  
    26    10    16 1   
    27    11    12 ar  
    28    11    28 1   
    29    12    18 ar  
    30    12    29 1   
    31    13    17 ar  
    32    13    30 1   
    33    15    31 1   
    34    17    18 ar  
    35    17    32 1   
    36    18    33 1   
    37    20    34 1   
    38    21    35 1   
    39    21    36 1   
    40    21    37 1   
    41    22    38 1   
@<TRIPOS>SUBSTRUCTURE
     1 BL6         1 TEMP              0 ****  ****    0 ROOT
