@<TRIPOS>MOLECULE
molecule
   35    38     1     0     0
SMALL
bcc


@<TRIPOS>ATOM
      1 O2           0.0000     0.0000     0.0000 o          1 BL7      -0.503100
      2 C4           1.2130     0.0000     0.0000 c          1 BL7       0.562700
      3 C3           2.0170     0.0000     1.2860 c3         1 BL7      -0.044500
      4 O1           2.4020    -1.3190     1.6800 oh         1 BL7      -0.554800
      5 C2           1.2230     0.7330     2.3890 c3         1 BL7      -0.114400
      6 C1           2.3320     1.5000     3.1400 c3         1 BL7       0.222800
      7 N1           3.5100     1.5010     2.2610 nh         1 BL7      -0.623000
      8 C12          4.7620     2.0220     2.6030 ca         1 BL7       0.175600
      9 C17          4.9600     2.5920     3.8540 ca         1 BL7      -0.167000
     10 C16          6.1980     3.1060     4.1890 ca         1 BL7      -0.101500
     11 C15          7.2390     3.0530     3.2810 ca         1 BL7      -0.157000
     12 C14          7.0450     2.4860     2.0340 ca         1 BL7      -0.101500
     13 C13          5.8110     1.9650     1.6940 ca         1 BL7      -0.167000
     14 C11          3.2180     0.9090     1.0590 c2         1 BL7       0.691200
     15 N2           3.7960     1.1060    -0.0920 ne         1 BL7      -0.658100
     16 C10          3.2890     0.5720    -1.2380 ca         1 BL7       0.226400
     17 C5           1.9960    -0.0050    -1.2480 ca         1 BL7      -0.238600
     18 C9           4.0360     0.5780    -2.4160 ca         1 BL7      -0.126000
     19 C8           3.5100     0.0320    -3.5670 ca         1 BL7      -0.088000
     20 C7           2.2400    -0.5270    -3.5720 ca         1 BL7      -0.160000
     21 C6           1.4810    -0.5590    -2.4190 ca         1 BL7      -0.051000
     22 HO1          1.6660    -1.9010     1.5910 ho         1 BL7       0.418000
     23 H2           0.8040    -0.0080     3.0600 hc         1 BL7       0.082700
     24 H2A          0.5660     1.4530     1.9180 hc         1 BL7       0.082700
     25 H1           2.5830     0.9330     4.0290 h1         1 BL7       0.066200
     26 H1A          2.0050     2.5260     3.2560 h1         1 BL7       0.066200
     27 H17          4.1440     2.6340     4.5650 ha         1 BL7       0.152000
     28 H16          6.3530     3.5510     5.1640 ha         1 BL7       0.131500
     29 H15          8.2080     3.4590     3.5450 ha         1 BL7       0.129000
     30 H14          7.8630     2.4440     1.3250 ha         1 BL7       0.131500
     31 H13          5.6600     1.5210     0.7180 ha         1 BL7       0.152000
     32 H9           5.0290     1.0120    -2.4260 ha         1 BL7       0.149000
     33 H8           4.0920     0.0490    -4.4810 ha         1 BL7       0.135000
     34 H7           1.8450    -0.9510    -4.4880 ha         1 BL7       0.135000
     35 H6           0.4900    -0.9970    -2.4280 ha         1 BL7       0.145000
@<TRIPOS>BOND
     1     1     2 2
     2     2     3 1
     3     2    17 1
     4     3     4 1
     5     3     5 1
     6     3    14 1
     7     5     6 1
     8     6     7 1
     9     7     8 1
    10     7    14 1
    11     8     9 ar
    12     8    13 ar
    13     9    10 ar
    14    10    11 ar
    15    11    12 ar
    16    12    13 ar
    17    14    15 2
    18    15    16 1
    19    16    17 ar
    20    16    18 ar
    21    17    21 ar
    22    18    19 ar
    23    19    20 ar
    24    20    21 ar
    25     4    22 1
    26     5    23 1
    27     5    24 1
    28     6    25 1
    29     6    26 1
    30     9    27 1
    31    10    28 1
    32    11    29 1
    33    12    30 1
    34    13    31 1
    35    18    32 1
    36    19    33 1
    37    20    34 1
    38    21    35 1
@<TRIPOS>SUBSTRUCTURE
     1 BL7         1 TEMP              0 ****  ****    0 ROOT
