@<TRIPOS>MOLECULE
BLA
   75    78     1     0     0
SMALL
bcc


@<TRIPOS>ATOM
      1 CHA          0.0000     0.0000     0.0000 ce         1 BLA       0.206800
      2 NA           2.2080     0.0000     1.1140 na         1 BLA       0.411900
      3 C1A          1.3960     0.0000     0.0000 cc         1 BLA      -0.335100
      4 C2A          2.2190     0.0070    -1.1330 cd         1 BLA      -0.035300
      5 C3A          3.5280     0.0020    -0.6980 cd         1 BLA      -0.149300
      6 C4A          3.5140     0.0010     0.6980 cc         1 BLA      -0.285100
      7 CMA          4.7550     0.0020    -1.5730 c3         1 BLA       0.095200
      8 CAA          1.7570     0.0100    -2.5670 c3         1 BLA       0.048900
      9 CBA          1.5940     1.4540    -3.0480 c3         1 BLA      -0.132400
     10 CGA          1.1340     1.4560    -4.4830 c          1 BLA       0.983600
     11 O1A          0.9540     0.4110    -5.0620 o          1 BLA      -0.901300
     12 O2A          0.9230     2.6190    -5.1180 o          1 BLA      -0.901300
     13 CHB          4.6470     0.0010     1.5350 ce         1 BLA      -0.005200
     14 NB           3.4690     1.1950     3.3360 ns         1 BLA      -0.052100
     15 C1B          4.5630     0.5210     2.8110 cd         1 BLA      -0.151400
     16 C2B          5.5720     0.4500     3.7920 cd         1 BLA      -0.026200
     17 C3B          5.0980     1.0900     4.9210 cc         1 BLA      -0.189200
     18 C4B          3.7390     1.5590     4.6040 c          1 BLA       0.627700
     19 CMB          6.9240    -0.1970     3.6360 c3         1 BLA       0.078100
     20 OB           2.9950     2.1640     5.3510 o          1 BLA      -0.670500
     21 CAB          5.8130     1.2650     6.1970 ce         1 BLA      -0.066000
     22 CBB          5.1910     1.8130     7.2380 c2         1 BLA      -0.178000
     23 NC           1.4680    -1.5570     4.3520 ns         1 BLA      -0.029100
     24 C1C          2.4710    -1.9990     5.1290 c          1 BLA       0.602700
     25 C2C          2.0080    -2.2310     6.4320 cc         1 BLA      -0.218400
     26 C3C          0.6590    -1.9150     6.4690 cd         1 BLA      -0.021000
     27 C4C          0.3050    -1.4820     5.1110 cd         1 BLA      -0.139400
     28 CAC         -0.2400    -2.0050     7.6320 cf         1 BLA      -0.063000
     29 CBC         -0.3640    -3.1540     8.2900 c2         1 BLA      -0.170000
     30 ND          -0.1600    -0.5810     2.3670 nd         1 BLA      -0.602300
     31 C1D         -1.1200    -0.7010     3.2790 cc         1 BLA       0.417900
     32 C2D         -2.3620    -0.4030     2.6700 cc         1 BLA      -0.301800
     33 C3D         -2.1020    -0.0970     1.3730 cd         1 BLA      -0.037200
     34 C4D         -0.7000    -0.2210     1.1960 cd         1 BLA      -0.043400
     35 CGD         -4.3020     2.1920    -0.7290 c          1 BLA       0.982600
     36 O1D         -4.8200     1.3400    -1.4110 o          1 BLA      -0.901800
     37 O2D         -4.6230     3.4840    -0.9090 o          1 BLA      -0.901800
     38 HHA         -0.5380     0.2890    -0.8950 ha         1 BLA       0.154000
     39 HA           1.8970    -0.0000     2.0660 hn         1 BLA       0.154700
     40 HMA1         5.2010     0.9900    -1.5690 hc         1 BLA       0.005367
     41 HMA2         4.4770    -0.2640    -2.5850 hc         1 BLA       0.005367
     42 HMA3         5.4700    -0.7180    -1.1930 hc         1 BLA       0.005367
     43 HAA1         2.4910    -0.4960    -3.1840 hc         1 BLA       0.031700
     44 HAA2         0.8070    -0.5050    -2.6420 hc         1 BLA       0.031700
     45 HBA1         2.5450     1.9680    -2.9730 hc         1 BLA       0.011700
     46 HBA2         0.8600     1.9590    -2.4320 hc         1 BLA       0.011700
     47 HHB          5.5490    -0.5100     1.2200 ha         1 BLA       0.123000
     48 HB           2.6140     1.3800     2.8490 hn         1 BLA       0.195500
     49 HMB1         6.8330    -1.0750     3.0090 hc         1 BLA       0.009700
     50 HMB2         7.3000    -0.4860     4.6100 hc         1 BLA       0.009700
     51 HMB3         7.6100     0.5050     3.1780 hc         1 BLA       0.009700
     52 HAB          6.8450     0.9490     6.2880 ha         1 BLA       0.090000
     53 HBB1         4.1590     2.1290     7.1480 ha         1 BLA       0.098500
     54 HBB2         5.7160     1.9410     8.1770 ha         1 BLA       0.098500
     55 HC           1.5440    -1.3230     3.3830 hn         1 BLA       0.216500
     56 HMC1         2.6780    -2.0850     8.4470 hc         1 BLA       0.005700
     57 HMC2         2.5310    -3.7400     7.8400 hc         1 BLA       0.005700
     58 HMC3         3.8810    -2.7230     7.3170 hc         1 BLA       0.005700
     59 HAC         -0.7910    -1.1320     7.9600 ha         1 BLA       0.107000
     60 HBC1        -1.0250    -3.2200     9.1450 ha         1 BLA       0.084500
     61 HBC2         0.1600    -4.0360     7.9420 ha         1 BLA       0.084500
     62 HHD         -1.7620    -1.0610     5.3650 ha         1 BLA       0.114000
     63 HMD1        -3.7240    -1.1630     4.1190 hc         1 BLA      -0.000300
     64 HMD2        -4.4760    -0.6500     2.6020 hc         1 BLA      -0.000300
     65 HMD3        -3.9150     0.5600     3.7640 hc         1 BLA      -0.000300
     66 HAD1        -4.0580    -0.1900     0.5360 hc         1 BLA       0.031700
     67 HAD2        -2.7580    -0.0320    -0.6520 hc         1 BLA       0.031700
     68 HBD1        -3.6460     2.1270     1.2960 hc         1 BLA       0.008700
     69 HBD2        -2.3460     2.2850     0.1070 hc         1 BLA       0.008700
     70 CMD         -3.7140    -0.4150     3.3350 c3         1 BLA       0.098100
     71 CHD         -0.9240    -1.0780     4.6770 ce         1 BLA      -0.101600
     72 CMC          2.8320    -2.7300     7.5900 c3         1 BLA       0.094100
     73 CAD         -3.1110     0.2880     0.3210 c3         1 BLA       0.042800
     74 OC           3.6190    -2.1720     4.7550 o          1 BLA      -0.700500
     75 CBD         -3.2930     1.8070     0.3230 c3         1 BLA      -0.130400
@<TRIPOS>BOND
     1     1     3 1   
     2     1    34 2   
     3     1    38 1   
     4     2     3 1   
     5     2     6 1   
     6     2    39 1   
     7     3     4 2   
     8     4     5 1   
     9     4     8 1   
    10     5     6 2   
    11     5     7 1   
    12     6    13 1   
    13     7    40 1   
    14     7    41 1   
    15     7    42 1   
    16     8     9 1   
    17     8    43 1   
    18     8    44 1   
    19     9    10 1   
    20     9    45 1   
    21     9    46 1   
    22    10    11 1   
    23    10    12 1   
    24    13    15 2   
    25    13    47 1   
    26    14    15 1   
    27    14    18 1   
    28    14    48 1   
    29    15    16 1   
    30    16    17 2   
    31    16    19 1   
    32    17    18 1   
    33    17    21 1   
    34    18    20 2   
    35    19    49 1   
    36    19    50 1   
    37    19    51 1   
    38    21    22 2   
    39    21    52 1   
    40    22    53 1   
    41    22    54 1   
    42    23    24 1   
    43    23    27 1   
    44    23    55 1   
    45    24    25 1   
    46    24    74 2   
    47    25    26 2   
    48    25    72 1   
    49    26    27 1   
    50    26    28 1   
    51    27    71 2   
    52    28    29 2   
    53    28    59 1   
    54    29    60 1   
    55    29    61 1   
    56    30    31 2   
    57    30    34 1   
    58    31    32 1   
    59    31    71 1   
    60    32    33 2   
    61    32    70 1   
    62    33    34 1   
    63    33    73 1   
    64    35    36 1   
    65    35    37 1   
    66    35    75 1   
    67    56    72 1   
    68    57    72 1   
    69    58    72 1   
    70    62    71 1   
    71    63    70 1   
    72    64    70 1   
    73    65    70 1   
    74    66    73 1   
    75    67    73 1   
    76    68    75 1   
    77    69    75 1   
    78    73    75 1   
@<TRIPOS>SUBSTRUCTURE
     1 BLA         1 TEMP              0 ****  ****    0 ROOT
