@<TRIPOS>MOLECULE
molecule
   75    78     1     0     0
SMALL
bcc


@<TRIPOS>ATOM
      1 CHA          0.0000     0.0000     0.0000 ce         1 BLA       0.129800
      2 NA           2.2080     0.0000     1.1140 na         1 BLA      -0.138100
      3 C1A          1.3960     0.0000     0.0000 cc         1 BLA      -0.134100
      4 C2A          2.2190     0.0070    -1.1330 cd         1 BLA      -0.040300
      5 C3A          3.5280     0.0020    -0.6980 cd         1 BLA      -0.149300
      6 C4A          3.5140     0.0010     0.6980 cc         1 BLA      -0.077100
      7 CMA          4.7550     0.0020    -1.5730 c3         1 BLA      -0.013800
      8 CAA          1.7570     0.0100    -2.5670 c3         1 BLA      -0.014100
      9 CBA          1.5940     1.4540    -3.0480 c3         1 BLA      -0.179400
     10 CGA          1.1340     1.4560    -4.4830 c          1 BLA       0.893600
     11 O1A          0.9540     0.4110    -5.0620 o          1 BLA      -0.850800
     12 O2A          0.9230     2.6190    -5.1180 o          1 BLA      -0.850800
     13 CHB          4.6470     0.0010     1.5350 ce         1 BLA      -0.076200
     14 NB           3.4690     1.1950     3.3360 ns         1 BLA      -0.478100
     15 C1B          4.5630     0.5210     2.8110 cd         1 BLA       0.015600
     16 C2B          5.5720     0.4500     3.7920 cd         1 BLA      -0.032200
     17 C3B          5.0980     1.0900     4.9210 cc         1 BLA      -0.174200
     18 C4B          3.7390     1.5590     4.6040 c          1 BLA       0.710700
     19 CMB          6.9240    -0.1970     3.6360 c3         1 BLA      -0.033900
     20 OB           2.9950     2.1640     5.3510 o          1 BLA      -0.626500
     21 CAB          5.8130     1.2650     6.1970 ce         1 BLA      -0.105000
     22 CBB          5.1910     1.8130     7.2380 c2         1 BLA      -0.215000
     23 NC           1.4680    -1.5570     4.3520 ns         1 BLA      -0.455100
     24 C1C          2.4710    -1.9990     5.1290 c          1 BLA       0.704700
     25 C2C          2.0080    -2.2310     6.4320 cc         1 BLA      -0.243400
     26 C3C          0.6590    -1.9150     6.4690 cd         1 BLA       0.004000
     27 C4C          0.3050    -1.4820     5.1110 cd         1 BLA      -0.009400
     28 CAC         -0.2400    -2.0050     7.6320 cf         1 BLA      -0.092000
     29 CBC         -0.3640    -3.1540     8.2900 c2         1 BLA      -0.219000
     30 ND          -0.1600    -0.5810     2.3670 nd         1 BLA      -0.674300
     31 C1D         -1.1200    -0.7010     3.2790 cc         1 BLA       0.444900
     32 C2D         -2.3620    -0.4030     2.6700 cc         1 BLA      -0.288800
     33 C3D         -2.1020    -0.0970     1.3730 cd         1 BLA      -0.049200
     34 C4D         -0.7000    -0.2210     1.1960 cd         1 BLA       0.012600
     35 CGD         -4.3020     2.1920    -0.7290 c          1 BLA       0.893600
     36 O1D         -4.8200     1.3400    -1.4110 o          1 BLA      -0.852800
     37 O2D         -4.6230     3.4840    -0.9090 o          1 BLA      -0.852800
     38 HHA         -0.5380     0.2890    -0.8950 ha         1 BLA       0.198000
     39 HA           1.8970    -0.0000     2.0660 hn         1 BLA       0.324700
     40 HMA1         5.0850     1.0220    -1.7310 hc         1 BLA       0.039033
     41 HMA2         4.5190    -0.4530    -2.5270 hc         1 BLA       0.039033
     42 HMA3         5.5440    -0.5610    -1.0890 hc         1 BLA       0.039033
     43 HAA1         0.8070    -0.5050    -2.6420 hc         1 BLA       0.061200
     44 HAA2         2.4910    -0.4960    -3.1840 hc         1 BLA       0.061200
     45 HBA1         0.8600     1.9590    -2.4320 hc         1 BLA       0.037200
     46 HBA2         2.5450     1.9680    -2.9730 hc         1 BLA       0.037200
     47 HHB          5.5490    -0.5100     1.2200 ha         1 BLA       0.155000
     48 HB           2.6140     1.3800     2.8490 hn         1 BLA       0.356500
     49 HMB1         6.8210    -1.1150     3.0710 hc         1 BLA       0.046367
     50 HMB2         7.5890     0.4780     3.1110 hc         1 BLA       0.046367
     51 HMB3         7.3330    -0.4180     4.6140 hc         1 BLA       0.046367
     52 HAB          6.8450     0.9490     6.2880 ha         1 BLA       0.115000
     53 HBB1         5.7160     1.9410     8.1770 ha         1 BLA       0.124500
     54 HBB2         4.1590     2.1290     7.1480 ha         1 BLA       0.124500
     55 HC           1.5440    -1.3230     3.3830 hn         1 BLA       0.372500
     56 HMC1         3.8830    -2.6830     7.3320 hc         1 BLA       0.042033
     57 HMC2         2.6460    -2.1100     8.4590 hc         1 BLA       0.042033
     58 HMC3         2.5600    -3.7550     7.8120 hc         1 BLA       0.042033
     59 HAC          0.5400    -1.4280     8.1140 ha         1 BLA       0.111000
     60 HBC1         0.5790    -3.4690     8.7200 ha         1 BLA       0.116000
     61 HBC2        -0.2280    -4.0050     7.6330 ha         1 BLA       0.116000
     62 HHD         -1.7620    -1.0610     5.3650 ha         1 BLA       0.152000
     63 HMD1        -4.4800    -0.6060     2.5940 hc         1 BLA       0.033033
     64 HMD2        -3.7390    -1.1930     4.0890 hc         1 BLA       0.033033
     65 HMD3        -3.8950     0.5460     3.8020 hc         1 BLA       0.033033
     66 HAD1        -4.0580    -0.1900     0.5360 hc         1 BLA       0.058700
     67 HAD2        -2.7580    -0.0320    -0.6520 hc         1 BLA       0.058700
     68 HBD1        -3.6460     2.1270     1.2960 hc         1 BLA       0.033700
     69 HBD2        -2.3460     2.2850     0.1070 hc         1 BLA       0.033700
     70 CMD         -3.7140    -0.4150     3.3350 c3         1 BLA      -0.014900
     71 CHD         -0.9240    -1.0780     4.6770 ce         1 BLA      -0.127600
     72 CMC          2.8320    -2.7300     7.5900 c3         1 BLA      -0.021900
     73 CAD         -3.1110     0.2880     0.3210 c3         1 BLA      -0.018200
     74 OC           3.6190    -2.1720     4.7550 o          1 BLA      -0.655500
     75 CBD         -3.2930     1.8070     0.3230 c3         1 BLA      -0.177400
@<TRIPOS>BOND
     1     1     3 1
     2     1    34 2
     3     1    38 1
     4     2     3 1
     5     2     6 1
     6     2    39 1
     7     3     4 2
     8     4     5 1
     9     4     8 1
    10     5     6 2
    11     5     7 1
    12     6    13 1
    13     7    40 1
    14     7    41 1
    15     7    42 1
    16     8     9 1
    17     8    43 1
    18     8    44 1
    19     9    10 1
    20     9    45 1
    21     9    46 1
    22    10    11 1
    23    10    12 1
    24    13    15 2
    25    13    47 1
    26    14    15 1
    27    14    18 1
    28    14    48 1
    29    15    16 1
    30    16    17 2
    31    16    19 1
    32    17    18 1
    33    17    21 1
    34    18    20 2
    35    19    49 1
    36    19    50 1
    37    19    51 1
    38    21    22 2
    39    21    52 1
    40    22    53 1
    41    22    54 1
    42    23    24 1
    43    23    27 1
    44    23    55 1
    45    24    25 1
    46    24    74 2
    47    25    26 2
    48    25    72 1
    49    26    27 1
    50    26    28 1
    51    27    71 2
    52    72    56 1
    53    72    57 1
    54    72    58 1
    55    28    29 2
    56    28    59 1
    57    29    60 1
    58    29    61 1
    59    71    31 1
    60    71    62 1
    61    30    31 2
    62    30    34 1
    63    31    32 1
    64    32    33 2
    65    32    70 1
    66    33    34 1
    67    33    73 1
    68    70    63 1
    69    70    64 1
    70    70    65 1
    71    73    75 1
    72    73    66 1
    73    73    67 1
    74    75    35 1
    75    75    68 1
    76    75    69 1
    77    35    36 1
    78    35    37 1
@<TRIPOS>SUBSTRUCTURE
     1 BLA         1 TEMP              0 ****  ****    0 ROOT
