@<TRIPOS>MOLECULE
molecule
   69    74     1     0     0
SMALL
bcc


@<TRIPOS>ATOM
      1 Cl1          0.0000     0.0000     0.0000 cl         1 BLF      -0.100400
      2 C2           1.7360     0.0000     0.0000 ca         1 BLF       0.059400
      3 Cl2          2.9160    -4.2850    -4.5300 cl         1 BLF      -0.104400
      4 C3           2.4190     0.0000     1.1980 ca         1 BLF      -0.150000
      5 C5           3.8110    -0.0010     1.2020 ca         1 BLF      -0.020200
      6 N6           4.7420    -0.0000     2.2150 na         1 BLF      -0.175400
      7 C8           6.0200     0.0010     1.6890 cc         1 BLF      -0.108300
      8 C9           5.9340    -0.0000     0.3030 cd         1 BLF       0.017600
      9 C10          4.5010    -0.0010    -0.0240 ca         1 BLF      -0.115800
     10 C11          3.7900    -0.0000    -1.2250 ca         1 BLF      -0.057000
     11 C13          2.4240    -0.0050    -1.2070 ca         1 BLF      -0.156000
     12 C15          7.0550     0.0010    -0.6470 cd         1 BLF      -0.158400
     13 N16          7.6870    -1.0990    -1.1840 na         1 BLF      -0.164900
     14 C17          8.6560    -0.6450    -2.0070 cd         1 BLF       0.406400
     15 N19          8.6560     0.6590    -2.0070 nc         1 BLF      -0.685000
     16 C20          7.6860     1.1100    -1.1920 cc         1 BLF       0.402800
     17 C21          7.3590     2.5290    -0.9170 ca         1 BLF      -0.095500
     18 C22          8.3750     3.4840    -0.8680 ca         1 BLF      -0.109500
     19 C24          8.0640     4.8030    -0.6120 ca         1 BLF      -0.135500
     20 C26          6.7480     5.1800    -0.4060 ca         1 BLF      -0.132000
     21 C28          5.7370     4.2370    -0.4530 ca         1 BLF      -0.135500
     22 C30          6.0340     2.9150    -0.7140 ca         1 BLF      -0.109500
     23 C32          7.3670    -2.5030    -0.9100 c3         1 BLF       0.094600
     24 C35          6.2500    -2.9490    -1.8180 ca         1 BLF      -0.122300
     25 C36          4.9360    -2.8070    -1.4170 ca         1 BLF      -0.100500
     26 C38          3.9110    -3.2170    -2.2500 ca         1 BLF      -0.124000
     27 C40          4.2020    -3.7700    -3.4850 ca         1 BLF       0.037400
     28 C41          5.5180    -3.9130    -3.8840 ca         1 BLF      -0.124000
     29 C43          6.5420    -3.4970    -3.0530 ca         1 BLF      -0.100500
     30 C46          7.2590     0.0010     2.4660 c          1 BLF       0.688300
     31 O47          8.3350     0.0010     1.8950 o          1 BLF      -0.567100
     32 N48          7.2110     0.0000     3.8130 ns         1 BLF      -0.589900
     33 C50          8.4530     0.0010     4.5900 c3         1 BLF       0.112000
     34 C53          8.1200     0.0010     6.0830 c3         1 BLF       0.144800
     35 N56          9.3650     0.0010     6.8630 n3         1 BLF      -0.722600
     36 C57         10.1040    -1.2560     6.6760 c3         1 BLF       0.121300
     37 C60         11.4190    -1.1890     7.4560 c3         1 BLF       0.139900
     38 O63         11.1380    -0.9260     8.8330 os         1 BLF      -0.423600
     39 C64         10.4200     0.2910     9.0520 c3         1 BLF       0.139900
     40 C67          9.0940     0.2390     8.2880 c3         1 BLF       0.121300
     41 H3           1.8740     0.0680     2.1320 ha         1 BLF       0.143000
     42 H11          4.3200    -0.0040    -2.1700 ha         1 BLF       0.155000
     43 H13          1.8740    -0.0070    -2.1400 ha         1 BLF       0.151000
     44 H17          9.3330    -1.2690    -2.5780 h5         1 BLF       0.061100
     45 H22          9.4050     3.1910    -1.0290 ha         1 BLF       0.142000
     46 H24          8.8510     5.5470    -0.5730 ha         1 BLF       0.126000
     47 H26          6.5090     6.2170    -0.2030 ha         1 BLF       0.124000
     48 H28          4.7090     4.5380    -0.2930 ha         1 BLF       0.126000
     49 H30          5.2420     2.1780    -0.7510 ha         1 BLF       0.142000
     50 H32          8.2440    -3.1150    -1.0880 h1         1 BLF       0.071200
     51 H32A         7.0570    -2.6080     0.1230 h1         1 BLF       0.071200
     52 H36          4.7080    -2.3750    -0.4510 ha         1 BLF       0.143000
     53 H38          2.8800    -3.1050    -1.9350 ha         1 BLF       0.148000
     54 H41          5.7470    -4.3420    -4.8520 ha         1 BLF       0.148000
     55 H43          7.5730    -3.6090    -3.3660 ha         1 BLF       0.143000
     56 HN48         6.3270     0.0290     4.2820 hn         1 BLF       0.302500
     57 H50          9.0290     0.8860     4.3490 h1         1 BLF       0.065700
     58 H50A         9.0310    -0.8830     4.3480 h1         1 BLF       0.065700
     59 H53          7.5430    -0.8840     6.3240 h1         1 BLF       0.036200
     60 H53A         7.5420     0.8850     6.3240 h1         1 BLF       0.036200
     61 H57          9.5080    -2.0820     7.0440 h1         1 BLF       0.044700
     62 H57A        10.3160    -1.3960     5.6230 h1         1 BLF       0.044700
     63 H60         11.9390    -2.1350     7.3680 h1         1 BLF       0.056200
     64 H60A        12.0360    -0.3930     7.0550 h1         1 BLF       0.056200
     65 H64         10.2210     0.4070    10.1110 h1         1 BLF       0.056200
     66 H64A        11.0090     1.1270     8.6960 h1         1 BLF       0.056200
     67 H67          8.5740     1.1820     8.4030 h1         1 BLF       0.044700
     68 H67A         8.4840    -0.5670     8.6780 h1         1 BLF       0.044700
     69 HN6          4.5240     0.0000     3.1920 hn         1 BLF       0.297700
@<TRIPOS>BOND
     1     2     1 1
     2    11     2 ar
     3     2     4 ar
     4    27     3 1
     5     5     4 ar
     6     4    41 1
     7     9     5 ar
     8     5     6 1
     9     7     6 1
    10     8     7 2
    11    30     7 1
    12    12     8 1
    13     8     9 1
    14    10     9 ar
    15    10    11 ar
    16    10    42 1
    17    11    43 1
    18    16    12 2
    19    12    13 1
    20    14    13 1
    21    13    23 1
    22    15    14 2
    23    14    44 1
    24    15    16 1
    25    17    16 1
    26    22    17 ar
    27    18    17 ar
    28    19    18 ar
    29    18    45 1
    30    20    19 ar
    31    19    46 1
    32    20    21 ar
    33    20    47 1
    34    21    22 ar
    35    21    48 1
    36    22    49 1
    37    23    24 1
    38    23    50 1
    39    23    51 1
    40    25    24 ar
    41    24    29 ar
    42    25    26 ar
    43    25    52 1
    44    26    27 ar
    45    26    53 1
    46    27    28 ar
    47    29    28 ar
    48    28    54 1
    49    29    55 1
    50    32    30 1
    51    30    31 2
    52    33    32 1
    53    32    56 1
    54    34    33 1
    55    33    57 1
    56    33    58 1
    57    35    34 1
    58    34    59 1
    59    34    60 1
    60    36    35 1
    61    35    40 1
    62    37    36 1
    63    36    61 1
    64    36    62 1
    65    37    38 1
    66    37    63 1
    67    37    64 1
    68    38    39 1
    69    39    40 1
    70    39    65 1
    71    39    66 1
    72    40    67 1
    73    40    68 1
    74     6    69 1
@<TRIPOS>SUBSTRUCTURE
     1 BLF         1 TEMP              0 ****  ****    0 ROOT
