@<TRIPOS>MOLECULE
BLF
   69    74     1     0     0
SMALL
bcc


@<TRIPOS>ATOM
      1 Cl1          0.0000     0.0000     0.0000 cl         1 BLF      -0.023400
      2 C2           1.7360     0.0000     0.0000 ca         1 BLF      -0.005600
      3 Cl2          2.9160    -4.2850    -4.5300 cl         1 BLF      -0.020400
      4 C3           2.4190     0.0000     1.1980 ca         1 BLF      -0.113000
      5 C5           3.8110    -0.0010     1.2020 ca         1 BLF      -0.206200
      6 N6           4.7420    -0.0000     2.2150 na         1 BLF       0.366600
      7 C8           6.0200     0.0010     1.6890 cc         1 BLF      -0.321300
      8 C9           5.9340    -0.0000     0.3030 cd         1 BLF       0.057600
      9 C10          4.5010    -0.0010    -0.0240 ca         1 BLF      -0.120800
     10 C11          3.7900    -0.0000    -1.2250 ca         1 BLF      -0.023000
     11 C13          2.4240    -0.0050    -1.2070 ca         1 BLF      -0.136000
     12 C15          7.0550     0.0010    -0.6470 cd         1 BLF      -0.325400
     13 N16          7.6870    -1.0990    -1.1840 na         1 BLF       0.321100
     14 C17          8.6560    -0.6450    -2.0070 cd         1 BLF       0.217400
     15 N19          8.6560     0.6590    -2.0070 nc         1 BLF      -0.602000
     16 C20          7.6860     1.1100    -1.1920 cc         1 BLF       0.378800
     17 C21          7.3590     2.5290    -0.9170 ca         1 BLF      -0.086500
     18 C22          8.3750     3.4840    -0.8680 ca         1 BLF      -0.098000
     19 C24          8.0640     4.8030    -0.6120 ca         1 BLF      -0.108000
     20 C26          6.7480     5.1800    -0.4060 ca         1 BLF      -0.111000
     21 C28          5.7370     4.2370    -0.4530 ca         1 BLF      -0.108000
     22 C30          6.0340     2.9150    -0.7140 ca         1 BLF      -0.098000
     23 C32          7.3670    -2.5030    -0.9100 c3         1 BLF       0.017600
     24 C35          6.2500    -2.9490    -1.8180 ca         1 BLF      -0.133300
     25 C36          4.9360    -2.8070    -1.4170 ca         1 BLF      -0.076500
     26 C38          3.9110    -3.2170    -2.2500 ca         1 BLF      -0.099500
     27 C40          4.2020    -3.7700    -3.4850 ca         1 BLF      -0.026600
     28 C41          5.5180    -3.9130    -3.8840 ca         1 BLF      -0.099500
     29 C43          6.5420    -3.4970    -3.0530 ca         1 BLF      -0.076500
     30 C46          7.2590     0.0010     2.4660 c          1 BLF       0.619300
     31 O47          8.3350     0.0010     1.8950 o          1 BLF      -0.617100
     32 N48          7.2110     0.0000     3.8130 ns         1 BLF      -0.204900
     33 C50          8.4530     0.0010     4.5900 c3         1 BLF       0.043000
     34 C53          8.1200     0.0010     6.0830 c3         1 BLF       0.141800
     35 N56          9.3650     0.0010     6.8630 n3         1 BLF      -0.528600
     36 C57         10.1040    -1.2560     6.6760 c3         1 BLF       0.106300
     37 C60         11.4190    -1.1890     7.4560 c3         1 BLF       0.215900
     38 O63         11.1380    -0.9260     8.8330 os         1 BLF      -0.410600
     39 C64         10.4200     0.2910     9.0520 c3         1 BLF       0.215900
     40 C67          9.0940     0.2390     8.2880 c3         1 BLF       0.106300
     41 H3           1.8740     0.0680     2.1320 ha         1 BLF       0.114000
     42 H11          4.3200    -0.0040    -2.1700 ha         1 BLF       0.120000
     43 H13          1.8740    -0.0070    -2.1400 ha         1 BLF       0.121000
     44 H17          9.3330    -1.2690    -2.5780 h5         1 BLF       0.019100
     45 H22          9.4050     3.1910    -1.0290 ha         1 BLF       0.119000
     46 H24          8.8510     5.5470    -0.5730 ha         1 BLF       0.098500
     47 H26          6.5090     6.2170    -0.2030 ha         1 BLF       0.097000
     48 H28          4.7090     4.5380    -0.2930 ha         1 BLF       0.098500
     49 H30          5.2420     2.1780    -0.7510 ha         1 BLF       0.119000
     50 H32          8.2440    -3.1150    -1.0880 h1         1 BLF       0.040700
     51 H32A         7.0570    -2.6080     0.1230 h1         1 BLF       0.040700
     52 H36          4.7080    -2.3750    -0.4510 ha         1 BLF       0.117500
     53 H38          2.8800    -3.1050    -1.9350 ha         1 BLF       0.119000
     54 H41          5.7470    -4.3420    -4.8520 ha         1 BLF       0.119000
     55 H43          7.5730    -3.6090    -3.3660 ha         1 BLF       0.117500
     56 HN48         6.3270     0.0290     4.2820 hn         1 BLF       0.162500
     57 H50          9.0290     0.8860     4.3490 h1         1 BLF       0.038700
     58 H50A         9.0310    -0.8830     4.3480 h1         1 BLF       0.038700
     59 H53          7.5430    -0.8840     6.3240 h1         1 BLF       0.009700
     60 H53A         7.5420     0.8850     6.3240 h1         1 BLF       0.009700
     61 H57          9.5080    -2.0820     7.0440 h1         1 BLF       0.018950
     62 H57A        10.3160    -1.3960     5.6230 h1         1 BLF       0.018950
     63 H60         11.9390    -2.1350     7.3680 h1         1 BLF       0.014950
     64 H60A        12.0360    -0.3930     7.0550 h1         1 BLF       0.014950
     65 H64         10.2210     0.4070    10.1110 h1         1 BLF       0.014950
     66 H64A        11.0090     1.1270     8.6960 h1         1 BLF       0.014950
     67 H67          8.5740     1.1820     8.4030 h1         1 BLF       0.018950
     68 H67A         8.4840    -0.5670     8.6780 h1         1 BLF       0.018950
     69 HN6          4.5240     0.0000     3.1920 hn         1 BLF       0.114700
@<TRIPOS>BOND
     1     1     2 1   
     2     2     4 ar  
     3     2    11 ar  
     4     3    27 1   
     5     4     5 ar  
     6     4    41 1   
     7     5     6 1   
     8     5     9 ar  
     9     6     7 1   
    10     6    69 1   
    11     7     8 2   
    12     7    30 1   
    13     8     9 1   
    14     8    12 1   
    15     9    10 ar  
    16    10    11 ar  
    17    10    42 1   
    18    11    43 1   
    19    12    13 1   
    20    12    16 2   
    21    13    14 1   
    22    13    23 1   
    23    14    15 2   
    24    14    44 1   
    25    15    16 1   
    26    16    17 1   
    27    17    18 ar  
    28    17    22 ar  
    29    18    19 ar  
    30    18    45 1   
    31    19    20 ar  
    32    19    46 1   
    33    20    21 ar  
    34    20    47 1   
    35    21    22 ar  
    36    21    48 1   
    37    22    49 1   
    38    23    24 1   
    39    23    50 1   
    40    23    51 1   
    41    24    25 ar  
    42    24    29 ar  
    43    25    26 ar  
    44    25    52 1   
    45    26    27 ar  
    46    26    53 1   
    47    27    28 ar  
    48    28    29 ar  
    49    28    54 1   
    50    29    55 1   
    51    30    31 2   
    52    30    32 1   
    53    32    33 1   
    54    32    56 1   
    55    33    34 1   
    56    33    57 1   
    57    33    58 1   
    58    34    35 1   
    59    34    59 1   
    60    34    60 1   
    61    35    36 1   
    62    35    40 1   
    63    36    37 1   
    64    36    61 1   
    65    36    62 1   
    66    37    38 1   
    67    37    63 1   
    68    37    64 1   
    69    38    39 1   
    70    39    40 1   
    71    39    65 1   
    72    39    66 1   
    73    40    67 1   
    74    40    68 1   
@<TRIPOS>SUBSTRUCTURE
     1 BLF         1 TEMP              0 ****  ****    0 ROOT
