@<TRIPOS>MOLECULE
BLI
   67    70     1     0     0
SMALL
bcc


@<TRIPOS>ATOM
      1 N1           0.0000     0.0000     0.0000 n          1 BLI      -0.127800
      2 C1           1.4780     0.0000     0.0000 c3         1 BLI       0.003700
      3 C2           2.0300     0.0000     1.4200 c3         1 BLI       0.227800
      4 N3           1.2290    -0.9040     2.2550 n3         1 BLI      -0.570500
      5 C4          -0.2120    -0.6610     2.3880 c3         1 BLI       0.170800
      6 C5          -0.7890    -0.4090     1.0160 c          1 BLI       0.638500
      7 O11         -1.9710    -0.5870     0.8130 o          1 BLI      -0.674500
      8 C01         -0.4070     0.5520    -1.3010 c3         1 BLI      -0.031300
      9 C09         -0.6580    -0.5680    -2.2780 c          1 BLI       0.565100
     10 O09         -0.5200    -1.7200    -1.9280 o          1 BLI      -0.605100
     11 N10         -1.0360    -0.2880    -3.5410 ns         1 BLI      -0.223900
     12 C03          0.7500     1.4370    -1.8020 c3         1 BLI      -0.032400
     13 C06          1.8440     1.3210    -0.7140 c3         1 BLI      -0.033400
     14 S1           1.9440    -2.1770     3.0370 s6         1 BLI       0.968900
     15 O2           0.8720    -3.1010     3.1760 o          1 BLI      -0.570300
     16 C02          2.4230    -1.4650     4.6350 c3         1 BLI       0.066700
     17 O1           3.0760    -2.4510     2.2240 o          1 BLI      -0.570300
     18 C1'         -1.2800    -1.3760    -4.4920 c3         1 BLI       0.063000
     19 C2'         -1.6930    -0.7890    -5.8430 c3         1 BLI      -0.069700
     20 C3'         -1.8260    -1.9180    -6.8680 c3         1 BLI      -0.037400
     21 C7'         -2.2050    -1.3250    -8.2280 c3         1 BLI       0.171300
     22 C4'         -3.0340    -0.0690    -5.6980 c3         1 BLI      -0.037400
     23 C5'         -3.4260     0.5490    -7.0480 c3         1 BLI       0.171300
     24 N1'         -3.4170    -0.5090    -8.0670 nh         1 BLI      -0.401600
     25 C6'         -4.5240    -0.7290    -8.8610 c2         1 BLI       0.276100
     26 N2'         -4.5410    -1.7930    -9.7410 nz         1 BLI       0.145400
     27 N3'         -5.5510     0.0640    -8.7800 n2         1 BLI      -0.388200
     28 O3'         -6.6870    -0.1620    -9.5950 oh         1 BLI      -0.377500
     29 C6B          3.0970    -2.5210     5.4730 ca         1 BLI      -0.100300
     30 C1B          4.4670    -2.6920     5.3990 ca         1 BLI      -0.085000
     31 C2B          5.0840    -3.6610     6.1690 ca         1 BLI      -0.092500
     32 C3B          4.3320    -4.4580     7.0120 ca         1 BLI      -0.088000
     33 C4B          2.9620    -4.2860     7.0860 ca         1 BLI      -0.092500
     34 C5B          2.3460    -3.3140     6.3210 ca         1 BLI      -0.085000
     35 H11          1.8580    -0.8490    -0.5560 h1         1 BLI       0.058700
     36 H21          1.9800     1.0030     1.8260 h1         1 BLI       0.030700
     37 H22          3.0590    -0.3390     1.4070 h1         1 BLI       0.030700
     38 H41         -0.3130     0.2690     2.9330 h1         1 BLI       0.061700
     39 H42         -0.6440    -1.5940     2.7300 h1         1 BLI       0.061700
     40 H011        -1.3020     1.1510    -1.1810 h1         1 BLI       0.051700
     41 H101        -1.1370     0.6640    -3.8330 hn         1 BLI       0.175500
     42 H031         1.1230     1.0670    -2.7500 hc         1 BLI       0.021200
     43 H032         0.4230     2.4660    -1.8960 hc         1 BLI       0.021200
     44 H061         2.8270     1.2510    -1.1660 hc         1 BLI       0.029700
     45 H062         1.7890     2.1550    -0.0250 hc         1 BLI       0.029700
     46 H021         3.1080    -0.6410     4.4730 h1         1 BLI       0.069200
     47 H022         1.5400    -1.1040     5.1490 h1         1 BLI       0.069200
     48 H1'1        -0.3750    -1.9590    -4.6120 h1         1 BLI       0.034700
     49 H1'2        -2.0720    -2.0120    -4.1170 h1         1 BLI       0.034700
     50 H2'1        -0.9420    -0.0850    -6.1800 hc         1 BLI       0.040700
     51 H3'1        -0.8800    -2.4400    -6.9540 hc         1 BLI       0.040200
     52 H3'2        -2.5970    -2.6070    -6.5480 hc         1 BLI       0.040200
     53 H7'1        -2.3990    -2.1260    -8.9310 h1         1 BLI       0.033700
     54 H7'2        -1.3960    -0.7030    -8.5910 h1         1 BLI       0.033700
     55 H4'1        -2.9450     0.7150    -4.9550 hc         1 BLI       0.040200
     56 H4'2        -3.7940    -0.7790    -5.3930 hc         1 BLI       0.040200
     57 H5'1        -4.4190     0.9770    -6.9770 h1         1 BLI       0.033700
     58 H5'2        -2.7110     1.3180    -7.3160 h1         1 BLI       0.033700
     59 HN21        -3.8030    -1.6860   -10.4080 hn         1 BLI       0.231133
     60 HN22        -4.4120    -2.6470    -9.2350 hn         1 BLI       0.231133
     61 HO31        -7.3320     0.5050    -9.4270 ho         1 BLI       0.475000
     62 H1A1         5.0560    -2.0670     4.7390 ha         1 BLI       0.111000
     63 H2A1         6.1580    -3.7960     6.1120 ha         1 BLI       0.107500
     64 H3A1         4.8160    -5.2180     7.6130 ha         1 BLI       0.106000
     65 H4A1         2.3730    -4.9090     7.7480 ha         1 BLI       0.107500
     66 H5A1         1.2720    -3.1790     6.3790 ha         1 BLI       0.111000
     67 H2'3        -5.4180    -1.8120   -10.2230 hn         1 BLI       0.231133
@<TRIPOS>BOND
     1     1     2 1   
     2     1     6 1   
     3     1     8 1   
     4     2     3 1   
     5     2    13 1   
     6     2    35 1   
     7     3     4 1   
     8     3    36 1   
     9     3    37 1   
    10     4     5 1   
    11     4    14 1   
    12     5     6 1   
    13     5    38 1   
    14     5    39 1   
    15     6     7 2   
    16     8     9 1   
    17     8    12 1   
    18     8    40 1   
    19     9    10 2   
    20     9    11 1   
    21    11    18 1   
    22    11    41 1   
    23    12    13 1   
    24    12    42 1   
    25    12    43 1   
    26    13    44 1   
    27    13    45 1   
    28    14    15 2   
    29    14    16 1   
    30    14    17 2   
    31    16    29 1   
    32    16    46 1   
    33    16    47 1   
    34    18    19 1   
    35    18    48 1   
    36    18    49 1   
    37    19    20 1   
    38    19    22 1   
    39    19    50 1   
    40    20    21 1   
    41    20    51 1   
    42    20    52 1   
    43    21    24 1   
    44    21    53 1   
    45    21    54 1   
    46    22    23 1   
    47    22    55 1   
    48    22    56 1   
    49    23    24 1   
    50    23    57 1   
    51    23    58 1   
    52    24    25 1   
    53    25    26 1   
    54    25    27 2   
    55    26    59 1   
    56    26    60 1   
    57    26    67 1   
    58    27    28 1   
    59    28    61 1   
    60    29    30 ar  
    61    29    34 ar  
    62    30    31 ar  
    63    30    62 1   
    64    31    32 ar  
    65    31    63 1   
    66    32    33 ar  
    67    32    64 1   
    68    33    34 ar  
    69    33    65 1   
    70    34    66 1   
@<TRIPOS>SUBSTRUCTURE
     1 BLI         1 TEMP              0 ****  ****    0 ROOT
