@<TRIPOS>MOLECULE
molecule
   67    70     1     0     0
SMALL
bcc


@<TRIPOS>ATOM
      1 N1           0.0000     0.0000     0.0000 n          1 BLI      -0.470800
      2 C1           1.4780     0.0000     0.0000 c3         1 BLI       0.092700
      3 C2           2.0300     0.0000     1.4200 c3         1 BLI       0.227800
      4 N3           1.2290    -0.9040     2.2550 n3         1 BLI      -0.831500
      5 C4          -0.2120    -0.6610     2.3880 c3         1 BLI       0.173800
      6 C5          -0.7890    -0.4090     1.0160 c          1 BLI       0.716500
      7 O11         -1.9710    -0.5870     0.8130 o          1 BLI      -0.628500
      8 C01         -0.4070     0.5520    -1.3010 c3         1 BLI       0.047700
      9 C09         -0.6580    -0.5680    -2.2780 c          1 BLI       0.646100
     10 O09         -0.5200    -1.7200    -1.9280 o          1 BLI      -0.564100
     11 N10         -1.0360    -0.2880    -3.5410 ns         1 BLI      -0.603900
     12 C03          0.7500     1.4370    -1.8020 c3         1 BLI      -0.093400
     13 C06          1.8440     1.3210    -0.7140 c3         1 BLI      -0.094400
     14 S1           1.9440    -2.1770     3.0370 s6         1 BLI       1.325900
     15 O2           0.8720    -3.1010     3.1760 o          1 BLI      -0.616300
     16 C02          2.4230    -1.4650     4.6350 c3         1 BLI      -0.163300
     17 O1           3.0760    -2.4510     2.2240 o          1 BLI      -0.616300
     18 C1'         -1.2800    -1.3760    -4.4920 c3         1 BLI       0.122000
     19 C2'         -1.6930    -0.7890    -5.8430 c3         1 BLI      -0.092700
     20 C3'         -1.8260    -1.9180    -6.8680 c3         1 BLI      -0.095900
     21 C7'         -2.2050    -1.3250    -8.2280 c3         1 BLI       0.230800
     22 C4'         -3.0340    -0.0690    -5.6980 c3         1 BLI      -0.095900
     23 C5'         -3.4260     0.5490    -7.0480 c3         1 BLI       0.230800
     24 N1'         -3.4170    -0.5090    -8.0670 nh         1 BLI      -0.776600
     25 C6'         -4.5240    -0.7290    -8.8610 c2         1 BLI       0.665100
     26 N2'         -4.5410    -1.7930    -9.7410 nz         1 BLI      -0.785600
     27 N3'         -5.5510     0.0640    -8.7800 n2         1 BLI      -0.453200
     28 O3'         -6.6870    -0.1620    -9.5950 oh         1 BLI      -0.393500
     29 C6B          3.0970    -2.5210     5.4730 ca         1 BLI      -0.102300
     30 C1B          4.4670    -2.6920     5.3990 ca         1 BLI      -0.109500
     31 C2B          5.0840    -3.6610     6.1690 ca         1 BLI      -0.122500
     32 C3B          4.3320    -4.4580     7.0120 ca         1 BLI      -0.113000
     33 C4B          2.9620    -4.2860     7.0860 ca         1 BLI      -0.122500
     34 C5B          2.3460    -3.3140     6.3210 ca         1 BLI      -0.109500
     35 H11          1.8580    -0.8490    -0.5560 h1         1 BLI       0.084700
     36 H21          3.0590    -0.3390     1.4070 h1         1 BLI       0.064200
     37 H22          1.9800     1.0030     1.8250 h1         1 BLI       0.064200
     38 H41         -0.6440    -1.5940     2.7310 h1         1 BLI       0.100200
     39 H42         -0.3130     0.2690     2.9330 h1         1 BLI       0.100200
     40 H011        -1.3020     1.1510    -1.1810 h1         1 BLI       0.083700
     41 H101        -1.1500     0.6640    -3.8290 hn         1 BLI       0.308500
     42 H031         1.1220     1.0670    -2.7500 hc         1 BLI       0.055200
     43 H032         0.4220     2.4660    -1.8960 hc         1 BLI       0.055200
     44 H061         1.7890     2.1550    -0.0250 hc         1 BLI       0.061200
     45 H062         2.8270     1.2510    -1.1650 hc         1 BLI       0.061200
     46 H021         3.1080    -0.6410     4.4720 h1         1 BLI       0.103200
     47 H022         1.5400    -1.1040     5.1490 h1         1 BLI       0.103200
     48 H1'1        -2.0720    -2.0130    -4.1170 h1         1 BLI       0.062700
     49 H1'2        -0.3750    -1.9590    -4.6130 h1         1 BLI       0.062700
     50 H2'1        -0.9420    -0.0850    -6.1800 hc         1 BLI       0.063700
     51 H3'1        -2.5970    -2.6080    -6.5470 hc         1 BLI       0.071450
     52 H3'2        -0.8800    -2.4400    -6.9540 hc         1 BLI       0.071450
     53 H7'1        -1.3960    -0.7030    -8.5910 h1         1 BLI       0.064200
     54 H7'2        -2.3990    -2.1250    -8.9320 h1         1 BLI       0.064200
     55 H4'1        -3.7940    -0.7790    -5.3920 hc         1 BLI       0.071450
     56 H4'2        -2.9440     0.7140    -4.9550 hc         1 BLI       0.071450
     57 H5'1        -4.4190     0.9770    -6.9770 h1         1 BLI       0.064200
     58 H5'2        -2.7110     1.3180    -7.3160 h1         1 BLI       0.064200
     59 HN21        -4.4540    -2.6490    -9.2300 hn         1 BLI       0.474800
     60 HN22        -5.4040    -1.7910   -10.2480 hn         1 BLI       0.474800
     61 HO31        -7.2900     0.5570    -9.5000 ho         1 BLI       0.484000
     62 H1A1         5.0560    -2.0670     4.7390 ha         1 BLI       0.137000
     63 H2A1         6.1580    -3.7960     6.1120 ha         1 BLI       0.138500
     64 H3A1         4.8160    -5.2180     7.6130 ha         1 BLI       0.137000
     65 H4A1         2.3730    -4.9090     7.7480 ha         1 BLI       0.138500
     66 H5A1         1.2720    -3.1790     6.3790 ha         1 BLI       0.137000
     67 H2'3        -3.7720    -1.7130   -10.3760 hn         1 BLI       0.474800
@<TRIPOS>BOND
     1     1     2 1
     2     1     6 1
     3     1     8 1
     4     2     3 1
     5     2    13 1
     6     2    35 1
     7     3     4 1
     8     3    36 1
     9     3    37 1
    10     4     5 1
    11     4    14 1
    12     5     6 1
    13     5    38 1
    14     5    39 1
    15     6     7 2
    16     8     9 1
    17     8    12 1
    18     8    40 1
    19     9    10 2
    20     9    11 1
    21    11    18 1
    22    11    41 1
    23    12    13 1
    24    12    42 1
    25    12    43 1
    26    13    44 1
    27    13    45 1
    28    14    15 2
    29    14    16 1
    30    14    17 2
    31    16    29 1
    32    16    46 1
    33    16    47 1
    34    18    19 1
    35    18    48 1
    36    18    49 1
    37    19    20 1
    38    19    22 1
    39    19    50 1
    40    20    21 1
    41    20    51 1
    42    20    52 1
    43    21    24 1
    44    21    53 1
    45    21    54 1
    46    22    23 1
    47    22    55 1
    48    22    56 1
    49    23    24 1
    50    23    57 1
    51    23    58 1
    52    24    25 1
    53    25    26 1
    54    25    27 2
    55    26    59 1
    56    26    60 1
    57    27    28 1
    58    28    61 1
    59    29    30 ar
    60    29    34 ar
    61    30    31 ar
    62    30    62 1
    63    31    32 ar
    64    31    63 1
    65    32    33 ar
    66    32    64 1
    67    33    34 ar
    68    33    65 1
    69    34    66 1
    70    67    26 1
@<TRIPOS>SUBSTRUCTURE
     1 BLI         1 TEMP              0 ****  ****    0 ROOT
