@<TRIPOS>MOLECULE
molecule
   73    75     1     0     0
SMALL
bcc


@<TRIPOS>ATOM
      1 CT1          0.0000     0.0000     0.0000 c3         1 BLK      -0.108767
      2 CT           1.5300     0.0000     0.0000 c3         1 BLK       0.178800
      3 CT2          2.0390     0.0000     1.4430 c3         1 BLK      -0.108767
      4 CT3          2.0400    -1.2480    -0.7210 c3         1 BLK      -0.108767
      5 O2           2.0140     1.1860    -0.6840 os         1 BLK      -0.433900
      6 CZ           1.6530     2.3780    -0.1720 c          1 BLK       0.758100
      7 O1           0.9510     2.4250     0.8190 o          1 BLK      -0.618000
      8 NZ           2.0680     3.5170    -0.7590 ns         1 BLK      -0.579900
      9 CE           1.6750     4.8140    -0.2020 c3         1 BLK       0.135000
     10 CD           2.2750     5.9370    -1.0500 c3         1 BLK      -0.099400
     11 CG           1.8650     7.2910    -0.4680 c3         1 BLK      -0.093400
     12 CB           2.4650     8.4140    -1.3160 c3         1 BLK      -0.100400
     13 CA           2.0530     9.7670    -0.7350 c3         1 BLK       0.032500
     14 N            0.5980     9.9290    -0.8510 nz         1 BLK      -0.801600
     15 C            2.7440    10.8710    -1.4940 c          1 BLK       0.678100
     16 O            2.1470    11.4800    -2.3510 o          1 BLK      -0.481000
     17 O3P          4.0210    11.1790    -1.2190 os         1 BLK      -0.496500
     18 P            4.6860    12.3690    -2.0740 p5         1 BLK       1.296800
     19 O1P          4.7800    11.9320    -3.6200 o          1 BLK      -0.763500
     20 O2P          3.8540    13.5870    -1.9560 o          1 BLK      -0.763500
     21 O5'          6.1640    12.6720    -1.5120 os         1 BLK      -0.594200
     22 C5'          6.9750    13.7470    -1.9930 c3         1 BLK       0.230400
     23 C4'          8.3120    13.7500    -1.2480 c3         1 BLK       0.124100
     24 O4'          9.0650    12.5740    -1.5900 os         1 BLK      -0.398600
     25 C3'          9.1460    14.9720    -1.6760 c3         1 BLK       0.081100
     26 O3'          9.4280    15.8050    -0.5490 oh         1 BLK      -0.577800
     27 C2'         10.4520    14.3620    -2.2390 c3         1 BLK       0.085100
     28 O2'         11.5900    15.1200    -1.8240 oh         1 BLK      -0.563800
     29 C1'         10.4580    12.9510    -1.5890 c3         1 BLK       0.262800
     30 N9          11.2480    12.0150    -2.3930 na         1 BLK      -0.254000
     31 C8          10.7680    11.1640    -3.3440 cc         1 BLK       0.451700
     32 N7          11.7460    10.4780    -3.8610 nd         1 BLK      -0.591100
     33 C5          12.9120    10.8450    -3.2770 ca         1 BLK      -0.161200
     34 C4          12.6070    11.8400    -2.3320 ca         1 BLK       0.449800
     35 N3          13.5910    12.3720    -1.6150 nb         1 BLK      -0.735000
     36 C2          14.8350    11.9770    -1.7850 ca         1 BLK       0.694900
     37 N1          15.1700    11.0460    -2.6590 nb         1 BLK      -0.778000
     38 C6          14.2550    10.4590    -3.4240 ca         1 BLK       0.767200
     39 N6          14.6150     9.4840    -4.3380 nv         1 BLK      -1.072500
     40 H1          -0.3610     0.0150    -1.0210 hc         1 BLK       0.051589
     41 H2          -0.3610    -0.8920     0.4980 hc         1 BLK       0.051589
     42 H3          -0.3610     0.8770     0.5240 hc         1 BLK       0.051589
     43 H4           2.0780    -1.0180     1.8120 hc         1 BLK       0.051589
     44 H5           1.3680     0.5830     2.0620 hc         1 BLK       0.051589
     45 H6           3.0310     0.4340     1.4760 hc         1 BLK       0.051589
     46 H7           3.1230    -1.2660    -0.6900 hc         1 BLK       0.051589
     47 H8           1.6500    -2.1330    -0.2320 hc         1 BLK       0.051589
     48 H9           1.7090    -1.2310    -1.7520 hc         1 BLK       0.051589
     49 H10          2.6420     3.4770    -1.5780 hn         1 BLK       0.327500
     50 H11          0.5950     4.8970    -0.2060 h1         1 BLK       0.052700
     51 H12          2.0390     4.8960     0.8150 h1         1 BLK       0.052700
     52 H13          3.3550     5.8540    -1.0460 hc         1 BLK       0.063200
     53 H14          1.9100     5.8550    -2.0670 hc         1 BLK       0.063200
     54 H15          2.2290     7.3720     0.5490 hc         1 BLK       0.038700
     55 H16          0.7840     7.3730    -0.4720 hc         1 BLK       0.038700
     56 H17          3.5450     8.3320    -1.3120 hc         1 BLK       0.101200
     57 H18          2.1010     8.3320    -2.3330 hc         1 BLK       0.101200
     58 H19          2.3400     9.8140     0.3090 hx         1 BLK       0.128700
     59 H20          0.3000     9.6260    -1.7570 hn         1 BLK       0.458467
     60 H21          0.1440     9.3780    -0.1490 hn         1 BLK       0.458467
     61 H24          6.4650    14.6880    -1.8240 h1         1 BLK       0.047700
     62 H25          7.1530    13.6180    -3.0540 h1         1 BLK       0.047700
     63 H26          8.1430    13.7780    -0.1790 h1         1 BLK       0.083700
     64 H27          8.6290    15.5300    -2.4470 h1         1 BLK       0.053700
     65 H28          9.2140    16.6990    -0.7570 ho         1 BLK       0.405000
     66 H29         10.4050    14.2850    -3.3190 h1         1 BLK       0.059700
     67 H30         11.7310    15.8320    -2.4270 ho         1 BLK       0.403000
     68 H31         10.8350    13.0030    -0.5750 h2         1 BLK       0.108700
     69 H32          9.7270    11.0720    -3.6280 h5         1 BLK       0.099800
     70 H33         15.6550    12.3720    -1.1970 h5         1 BLK       0.061100
     71 H34         14.7530     9.7260    -5.2990 hn         1 BLK       0.441800
     72 H35         14.7090     8.5320    -4.0440 hn         1 BLK       0.441800
     73 HN3          0.3610    10.8960    -0.7530 hn         1 BLK       0.458467
@<TRIPOS>BOND
     1    39    38 1
     2    37    38 ar
     3    37    36 ar
     4    38    33 ar
     5    36    35 ar
     6    33    32 1
     7    33    34 ar
     8    32    31 2
     9    35    34 ar
    10    34    30 1
    11    31    30 1
    12    30    29 1
    13    29    27 1
    14    29    24 1
    15    27    25 1
    16    27    28 1
    17    24    23 1
    18    19    18 1
    19    20    18 1
    20    21    18 1
    21    21    22 1
    22    25    23 1
    23    25    26 1
    24    18    17 1
    25    23    22 1
    26    16    15 2
    27    17    15 1
    28    15    13 1
    29    13    14 1
    30    13    12 1
    31    12    11 1
    32    11    10 1
    33    10     9 1
    34     9     8 1
    35     3     2 1
    36     1     2 1
    37     5     6 1
    38     5     2 1
    39     8     6 1
    40     6     7 2
    41     2     4 1
    42     1    40 1
    43     1    41 1
    44     1    42 1
    45     3    43 1
    46     3    44 1
    47     3    45 1
    48     4    46 1
    49     4    47 1
    50     4    48 1
    51     8    49 1
    52     9    50 1
    53     9    51 1
    54    10    52 1
    55    10    53 1
    56    11    54 1
    57    11    55 1
    58    12    56 1
    59    12    57 1
    60    13    58 1
    61    14    59 1
    62    14    60 1
    63    22    61 1
    64    22    62 1
    65    23    63 1
    66    25    64 1
    67    26    65 1
    68    27    66 1
    69    28    67 1
    70    29    68 1
    71    31    69 1
    72    36    70 1
    73    39    71 1
    74    39    72 1
    75    73    14 1
@<TRIPOS>SUBSTRUCTURE
     1 BLK         1 TEMP              0 ****  ****    0 ROOT
