@<TRIPOS>MOLECULE
BLK
   73    75     1     0     0
SMALL
bcc


@<TRIPOS>ATOM
      1 CT1          0.0000     0.0000     0.0000 c3         1 BLK      -0.032100
      2 CT           1.5300     0.0000     0.0000 c3         1 BLK       0.196800
      3 CT2          2.0390     0.0000     1.4430 c3         1 BLK      -0.032100
      4 CT3          2.0400    -1.2480    -0.7210 c3         1 BLK      -0.032100
      5 O2           2.0140     1.1860    -0.6840 os         1 BLK      -0.415900
      6 CZ           1.6530     2.3780    -0.1720 c          1 BLK       0.690100
      7 O1           0.9510     2.4250     0.8190 o          1 BLK      -0.664000
      8 NZ           2.0680     3.5170    -0.7590 ns         1 BLK      -0.183900
      9 CE           1.6750     4.8140    -0.2020 c3         1 BLK       0.066000
     10 CD           2.2750     5.9370    -1.0500 c3         1 BLK      -0.036400
     11 CG           1.8650     7.2910    -0.4680 c3         1 BLK      -0.034400
     12 CB           2.4650     8.4140    -1.3160 c3         1 BLK      -0.029400
     13 CA           2.0530     9.7670    -0.7350 c3         1 BLK      -0.171500
     14 N            0.5980     9.9290    -0.8510 nz         1 BLK       0.080400
     15 C            2.7440    10.8710    -1.4940 c          1 BLK       0.758100
     16 O            2.1470    11.4800    -2.3510 o          1 BLK      -0.549000
     17 O3P          4.0210    11.1790    -1.2190 os         1 BLK      -0.414500
     18 P            4.6860    12.3690    -2.0740 p5         1 BLK       0.908800
     19 O1P          4.7800    11.9320    -3.6200 o          1 BLK      -0.610000
     20 O2P          3.8540    13.5870    -1.9560 o          1 BLK      -0.610000
     21 O5'          6.1640    12.6720    -1.5120 os         1 BLK      -0.503200
     22 C5'          6.9750    13.7470    -1.9930 c3         1 BLK       0.314400
     23 C4'          8.3120    13.7500    -1.2480 c3         1 BLK       0.146100
     24 O4'          9.0650    12.5740    -1.5900 os         1 BLK      -0.383600
     25 C3'          9.1460    14.9720    -1.6760 c3         1 BLK       0.124100
     26 O3'          9.4280    15.8050    -0.5490 oh         1 BLK      -0.558800
     27 C2'         10.4520    14.3620    -2.2390 c3         1 BLK       0.121100
     28 O2'         11.5900    15.1200    -1.8240 oh         1 BLK      -0.545800
     29 C1'         10.4580    12.9510    -1.5890 c3         1 BLK       0.150800
     30 N9          11.2480    12.0150    -2.3930 na         1 BLK       0.208000
     31 C8          10.7680    11.1640    -3.3440 cc         1 BLK       0.280700
     32 N7          11.7460    10.4780    -3.8610 nd         1 BLK      -0.509100
     33 C5          12.9120    10.8450    -3.2770 ca         1 BLK      -0.186200
     34 C4          12.6070    11.8400    -2.3320 ca         1 BLK       0.229800
     35 N3          13.5910    12.3720    -1.6150 nb         1 BLK      -0.593000
     36 C2          14.8350    11.9770    -1.7850 ca         1 BLK       0.624900
     37 N1          15.1700    11.0460    -2.6590 nb         1 BLK      -0.667000
     38 C6          14.2550    10.4590    -3.4240 ca         1 BLK       0.589200
     39 N6          14.6150     9.4840    -4.3380 nv         1 BLK      -0.641500
     40 H1          -0.3610     0.0150    -1.0210 hc         1 BLK       0.020478
     41 H2          -0.3610    -0.8920     0.4980 hc         1 BLK       0.020478
     42 H3          -0.3610     0.8770     0.5240 hc         1 BLK       0.020478
     43 H4           2.0780    -1.0180     1.8120 hc         1 BLK       0.020478
     44 H5           1.3680     0.5830     2.0620 hc         1 BLK       0.020478
     45 H6           3.0310     0.4340     1.4760 hc         1 BLK       0.020478
     46 H7           3.1230    -1.2660    -0.6900 hc         1 BLK       0.020478
     47 H8           1.6500    -2.1330    -0.2320 hc         1 BLK       0.020478
     48 H9           1.7090    -1.2310    -1.7520 hc         1 BLK       0.020478
     49 H10          2.6420     3.4770    -1.5780 hn         1 BLK       0.181500
     50 H11          0.5950     4.8970    -0.2060 h1         1 BLK       0.024200
     51 H12          2.0390     4.8960     0.8150 h1         1 BLK       0.024200
     52 H13          3.3550     5.8540    -1.0460 hc         1 BLK       0.030200
     53 H14          1.9100     5.8550    -2.0670 hc         1 BLK       0.030200
     54 H15          2.2290     7.3720     0.5490 hc         1 BLK       0.009700
     55 H16          0.7840     7.3730    -0.4720 hc         1 BLK       0.009700
     56 H17          3.5450     8.3320    -1.3120 hc         1 BLK       0.063200
     57 H18          2.1010     8.3320    -2.3330 hc         1 BLK       0.063200
     58 H19          2.3400     9.8140     0.3090 hx         1 BLK       0.097700
     59 H20          0.3000     9.6260    -1.7570 hn         1 BLK       0.224133
     60 H21          0.1440     9.3780    -0.1490 hn         1 BLK       0.224133
     61 H24          6.4650    14.6880    -1.8240 h1         1 BLK      -0.003800
     62 H25          7.1530    13.6180    -3.0540 h1         1 BLK      -0.003800
     63 H26          8.1430    13.7780    -0.1790 h1         1 BLK       0.042700
     64 H27          8.6290    15.5300    -2.4470 h1         1 BLK       0.018700
     65 H28          9.2140    16.6990    -0.7570 ho         1 BLK       0.388000
     66 H29         10.4050    14.2850    -3.3190 h1         1 BLK       0.023700
     67 H30         11.7310    15.8320    -2.4270 ho         1 BLK       0.387000
     68 H31         10.8350    13.0030    -0.5750 h2         1 BLK       0.064700
     69 H32          9.7270    11.0720    -3.6280 h5         1 BLK       0.050800
     70 H33         15.6550    12.3720    -1.1970 h5         1 BLK      -0.002900
     71 H34         14.7530     9.7260    -5.2990 hn         1 BLK       0.278800
     72 H35         14.7090     8.5320    -4.0440 hn         1 BLK       0.278800
     73 HN3          0.3610    10.8960    -0.7530 hn         1 BLK       0.224133
@<TRIPOS>BOND
     1     1     2 1   
     2     1    40 1   
     3     1    41 1   
     4     1    42 1   
     5     2     3 1   
     6     2     4 1   
     7     2     5 1   
     8     3    43 1   
     9     3    44 1   
    10     3    45 1   
    11     4    46 1   
    12     4    47 1   
    13     4    48 1   
    14     5     6 1   
    15     6     7 2   
    16     6     8 1   
    17     8     9 1   
    18     8    49 1   
    19     9    10 1   
    20     9    50 1   
    21     9    51 1   
    22    10    11 1   
    23    10    52 1   
    24    10    53 1   
    25    11    12 1   
    26    11    54 1   
    27    11    55 1   
    28    12    13 1   
    29    12    56 1   
    30    12    57 1   
    31    13    14 1   
    32    13    15 1   
    33    13    58 1   
    34    14    59 1   
    35    14    60 1   
    36    14    73 1   
    37    15    16 2   
    38    15    17 1   
    39    17    18 1   
    40    18    19 1   
    41    18    20 1   
    42    18    21 1   
    43    21    22 1   
    44    22    23 1   
    45    22    61 1   
    46    22    62 1   
    47    23    24 1   
    48    23    25 1   
    49    23    63 1   
    50    24    29 1   
    51    25    26 1   
    52    25    27 1   
    53    25    64 1   
    54    26    65 1   
    55    27    28 1   
    56    27    29 1   
    57    27    66 1   
    58    28    67 1   
    59    29    30 1   
    60    29    68 1   
    61    30    31 1   
    62    30    34 1   
    63    31    32 2   
    64    31    69 1   
    65    32    33 1   
    66    33    34 ar  
    67    33    38 ar  
    68    34    35 ar  
    69    35    36 ar  
    70    36    37 ar  
    71    36    70 1   
    72    37    38 ar  
    73    38    39 1   
    74    39    71 1   
    75    39    72 1   
@<TRIPOS>SUBSTRUCTURE
     1 BLK         1 TEMP              0 ****  ****    0 ROOT
