@<TRIPOS>MOLECULE
BLN
   59    60     1     0     0
SMALL
bcc


@<TRIPOS>ATOM
      1 C1           0.0000     0.0000     0.0000 c          1 BLN       0.603100
      2 C2           0.0300    -0.7090     2.3550 c3         1 BLN       0.020000
      3 C3          -0.6960     0.0000     3.5030 c3         1 BLN       0.184900
      4 C5          -2.6840     0.1790     2.3500 c3         1 BLN       0.184900
      5 C6          -2.1420    -0.5080     1.0970 c3         1 BLN       0.020000
      6 O1           1.2150     0.0000     0.0000 o          1 BLN      -0.714100
      7 O2          -2.0700    -0.3840     3.5100 os         1 BLN      -0.387600
      8 N1          -0.6730    -0.3900     1.1010 n          1 BLN      -0.179800
      9 N           -0.6750     0.3890    -1.1000 ns         1 BLN      -0.219900
     10 CA           0.0540     0.7100    -2.3300 c3         1 BLN      -0.038300
     11 CB           0.3730    -0.5820    -3.0850 c3         1 BLN      -0.039400
     12 CG           1.2090    -0.2550    -4.3230 c3         1 BLN      -0.075700
     13 CD1          2.5750     0.2820    -3.8900 c3         1 BLN       0.004900
     14 CD2          1.4030    -1.5240    -5.1580 c3         1 BLN       0.004900
     15 C           -0.7960     1.6020    -3.1980 c          1 BLN       0.578100
     16 O           -1.9960     1.6500    -3.0280 o          1 BLN      -0.651100
     17 CB'         -0.2240     4.3290    -5.5960 c3         1 BLN       0.180400
     18 N'          -0.2230     2.3450    -4.1650 ns         1 BLN      -0.199900
     19 CD           1.5570     4.9470    -6.9040 c3         1 BLN       0.264700
     20 C1'          2.6800     4.4760    -7.7900 ca         1 BLN      -0.118300
     21 C2'          2.4720     4.3290    -9.1490 ca         1 BLN      -0.076000
     22 C3'          3.5020     3.8960    -9.9630 ca         1 BLN      -0.103000
     23 C4'          4.7410     3.6120    -9.4190 ca         1 BLN      -0.089000
     24 C5'          4.9480     3.7600    -8.0600 ca         1 BLN      -0.103000
     25 C6'          3.9200     4.1970    -7.2470 ca         1 BLN      -0.076000
     26 C'          -1.5420     2.3440    -6.1670 c1         1 BLN       0.175700
     27 N40         -1.9190     1.7080    -7.0310 n1         1 BLN      -0.355800
     28 CA'         -1.0550     3.1660    -5.0480 c3         1 BLN       0.153800
     29 HC21         1.0530    -0.3580     2.2990 h1         1 BLN       0.036200
     30 HC22         0.0130    -1.7800     2.5200 h1         1 BLN       0.036200
     31 HC31        -0.6230     1.0720     3.3660 h1         1 BLN       0.015450
     32 HC32        -0.2400    -0.2810     4.4450 h1         1 BLN       0.015450
     33 HC51        -3.7560     0.0340     2.4050 h1         1 BLN       0.015450
     34 HC52        -2.4600     1.2380     2.3040 h1         1 BLN       0.015450
     35 HC61        -2.5440    -0.0240     0.2150 h1         1 BLN       0.036200
     36 HC62        -2.4230    -1.5540     1.1060 h1         1 BLN       0.036200
     37 HN          -1.6700     0.4910    -1.0660 hn         1 BLN       0.204500
     38 HCA          0.9760     1.2200    -2.0810 h1         1 BLN       0.068700
     39 HCB1         0.9300    -1.2500    -2.4390 hc         1 BLN       0.037700
     40 HCB2        -0.5500    -1.0610    -3.3880 hc         1 BLN       0.037700
     41 HCG          0.6980     0.4930    -4.9170 hc         1 BLN       0.031700
     42 HD11         3.0510    -0.4320    -3.2290 hc         1 BLN       0.006700
     43 HD12         3.1960     0.4350    -4.7640 hc         1 BLN       0.006700
     44 HD13         2.4440     1.2240    -3.3700 hc         1 BLN       0.006700
     45 HD21         0.4370    -1.9020    -5.4700 hc         1 BLN       0.006700
     46 HD22         1.9090    -2.2740    -4.5620 hc         1 BLN       0.006700
     47 HD23         2.0000    -1.2940    -6.0320 hc         1 BLN       0.006700
     48 HB'1        -0.8610     4.9850    -6.1780 h1         1 BLN       0.010700
     49 HB'2         0.2070     4.8840    -4.7720 h1         1 BLN       0.010700
     50 HN'          0.7750     2.3810    -4.2420 hn         1 BLN       0.208500
     51 HCD1         1.9660     5.4940    -6.0620 h1         1 BLN      -0.001800
     52 HCD2         0.8980     5.5960    -7.4690 h1         1 BLN      -0.001800
     53 H2'C         1.5010     4.5520    -9.5760 ha         1 BLN       0.105000
     54 H3'C         3.3390     3.7810   -11.0280 ha         1 BLN       0.104500
     55 H4'C         5.5470     3.2710   -10.0560 ha         1 BLN       0.103000
     56 H5'C         5.9190     3.5390    -7.6340 ha         1 BLN       0.104500
     57 H6'C         4.0830     4.3120    -6.1820 ha         1 BLN       0.105000
     58 HA'C        -1.8980     3.5550    -4.4910 h1         1 BLN       0.070700
     59 OG           0.8200     3.8190    -6.4260 os         1 BLN      -0.394600
@<TRIPOS>BOND
     1     1     6 2   
     2     1     8 1   
     3     1     9 1   
     4     2     3 1   
     5     2     8 1   
     6     2    29 1   
     7     2    30 1   
     8     3     7 1   
     9     3    31 1   
    10     3    32 1   
    11     4     5 1   
    12     4     7 1   
    13     4    33 1   
    14     4    34 1   
    15     5     8 1   
    16     5    35 1   
    17     5    36 1   
    18     9    10 1   
    19     9    37 1   
    20    10    11 1   
    21    10    15 1   
    22    10    38 1   
    23    11    12 1   
    24    11    39 1   
    25    11    40 1   
    26    12    13 1   
    27    12    14 1   
    28    12    41 1   
    29    13    42 1   
    30    13    43 1   
    31    13    44 1   
    32    14    45 1   
    33    14    46 1   
    34    14    47 1   
    35    15    16 2   
    36    15    18 1   
    37    17    28 1   
    38    17    48 1   
    39    17    49 1   
    40    17    59 1   
    41    18    28 1   
    42    18    50 1   
    43    19    20 1   
    44    19    51 1   
    45    19    52 1   
    46    19    59 1   
    47    20    21 ar  
    48    20    25 ar  
    49    21    22 ar  
    50    21    53 1   
    51    22    23 ar  
    52    22    54 1   
    53    23    24 ar  
    54    23    55 1   
    55    24    25 ar  
    56    24    56 1   
    57    25    57 1   
    58    26    27 3   
    59    26    28 1   
    60    28    58 1   
@<TRIPOS>SUBSTRUCTURE
     1 BLN         1 TEMP              0 ****  ****    0 ROOT
