@<TRIPOS>MOLECULE
BLO
   54    55     1     0     0
SMALL
bcc


@<TRIPOS>ATOM
      1 O7          0.1230    0.9450   -0.3280 o         1 BLO     -0.655100
      2 C7          1.3700    0.8870   -0.2230 c         1 BLO      0.649100
      3 C8          2.0390    0.4860    1.0830 c3        1 BLO     -0.196400
      4 C9          1.0240    0.2990    2.2230 c3        1 BLO      0.179500
      5 C10         1.8130    0.0530    3.5200 c3        1 BLO     -0.112400
      6 C11         0.9490    0.3680    4.7420 c3        1 BLO      0.173800
      7 N12         1.3330   -0.2250    6.0070 nh        1 BLO     -0.750600
      8 C14         0.7610   -1.5380    6.3150 c2        1 BLO      0.748100
      9 N15         0.4040   -1.8750    7.5280 n2        1 BLO     -0.861100
     10 N14         0.6330   -2.4820    5.2590 nh        1 BLO     -0.905800
     11 C13         2.7410   -0.1420    6.3110 c3        1 BLO      0.169100
     12 N9          0.0300   -0.7360    2.0010 n3        1 BLO     -0.918800
     13 N6          2.2130    1.2310   -1.2520 n         1 BLO     -0.537900
     14 C4'         1.7520    1.3730   -2.6190 c3        1 BLO      0.109900
     15 C3'         0.7830    2.4980   -2.8450 c2        1 BLO     -0.129200
     16 C2'         0.5770    2.9130   -4.0960 c2        1 BLO     -0.228200
     17 C5'         2.9650    1.5610   -3.5670 c3        1 BLO     -0.006900
     18 C6'         3.8290    0.2640   -3.5040 c         1 BLO      0.918600
     19 O3          4.6020    0.1930   -2.5050 o         1 BLO     -0.817300
     20 O4          3.6790   -0.6300   -4.3740 o         1 BLO     -0.817300
     21 O5'         2.6370    1.8530   -4.9230 os        1 BLO     -0.393600
     22 C1'         1.3290    2.2960   -5.2440 c3        1 BLO      0.341700
     23 N1          0.5580    1.2030   -5.8770 n         1 BLO     -0.382000
     24 C6          0.9760   -0.0990   -5.8460 cc        1 BLO      0.077600
     25 C5          0.2450   -1.0990   -6.4610 cd        1 BLO     -0.427600
     26 C4         -0.9570   -0.7000   -7.1350 cd        1 BLO      0.727900
     27 O1         -1.6700   -1.7130   -7.7270 oh        1 BLO     -0.583600
     28 N3         -1.4030    0.5550   -7.2220 nc        1 BLO     -0.760100
     29 C2         -0.6390    1.5580   -6.5980 c         1 BLO      0.829900
     30 O2         -0.9630    2.7650   -6.6510 o         1 BLO     -0.651500
     31 H81         2.6110   -0.4650    0.9170 hc        1 BLO      0.072200
     32 H82         2.7740    1.2800    1.3770 hc        1 BLO      0.072200
     33 H9          0.4590    1.2740    2.3320 h1        1 BLO      0.067700
     34 H101        2.1950   -1.0000    3.5420 hc        1 BLO      0.048200
     35 H102        2.7130    0.7220    3.5310 hc        1 BLO      0.048200
     36 H111        0.9820    1.4860    4.9080 h1        1 BLO      0.060200
     37 H112       -0.1260    0.1010    4.5340 h1        1 BLO      0.060200
     38 H15         0.6110   -1.2050    8.2360 hn        1 BLO      0.395400
     39 H141        0.4040   -2.0840    4.3720 hn        1 BLO      0.405300
     40 H142        0.0600   -3.2680    5.4850 hn        1 BLO      0.405300
     41 H131        2.9140   -0.4900    7.3640 h1        1 BLO      0.036367
     42 H132        3.3820   -0.7560    5.6220 h1        1 BLO      0.036367
     43 H133        3.0570    0.9320    6.2260 h1        1 BLO      0.036367
     44 HN91        0.4730   -1.5830    1.6990 hn        1 BLO      0.361300
     45 HN92       -0.6100   -0.4360    1.2860 hn        1 BLO      0.361300
     46 HN6         3.1910    1.0040   -1.1680 hn        1 BLO      0.359500
     47 H4'         1.2190    0.4170   -2.9250 h1        1 BLO      0.069700
     48 H3'         0.2590    2.9160   -1.9740 ha        1 BLO      0.150000
     49 H2'        -0.1440    3.6920   -4.3780 ha        1 BLO      0.154000
     50 H5'         3.5870    2.4350   -3.2200 h1        1 BLO      0.057700
     51 H1'         1.4930    3.0700   -6.0610 h2        1 BLO      0.091700
     52 H6          1.9460   -0.3180   -5.3170 h4        1 BLO      0.256000
     53 H5          0.5630   -2.1440   -6.4430 ha        1 BLO      0.171000
     54 HO1        -2.4620   -1.3470   -8.1550 ho        1 BLO      0.434000
@<TRIPOS>BOND
     1    1    2 2   
     2    2    3 1   
     3    2   13 1   
     4    3    4 1   
     5    3   31 1   
     6    3   32 1   
     7    4    5 1   
     8    4   12 1   
     9    4   33 1   
    10    5    6 1   
    11    5   34 1   
    12    5   35 1   
    13    6    7 1   
    14    6   36 1   
    15    6   37 1   
    16    7    8 1   
    17    7   11 1   
    18    8    9 2   
    19    8   10 1   
    20    9   38 1   
    21   10   39 1   
    22   10   40 1   
    23   11   41 1   
    24   11   42 1   
    25   11   43 1   
    26   12   44 1   
    27   12   45 1   
    28   13   14 1   
    29   13   46 1   
    30   14   15 1   
    31   14   17 1   
    32   14   47 1   
    33   15   16 2   
    34   15   48 1   
    35   16   22 1   
    36   16   49 1   
    37   17   18 1   
    38   17   21 1   
    39   17   50 1   
    40   18   19 1   
    41   18   20 1   
    42   21   22 1   
    43   22   23 1   
    44   22   51 1   
    45   23   24 1   
    46   23   29 1   
    47   24   25 2   
    48   24   52 1   
    49   25   26 1   
    50   25   53 1   
    51   26   27 1   
    52   26   28 2   
    53   27   54 1   
    54   28   29 1   
    55   29   30 2   
@<TRIPOS>SUBSTRUCTURE
     1 BLO         1 TEMP              0 ****  ****    0 ROOT
