@<TRIPOS>MOLECULE
molecule
   50    51     1     0     0
SMALL
bcc


@<TRIPOS>ATOM
      1 O8           0.0000     0.0000     0.0000 o          1 BLP      -0.209500
      2 N5           1.2180     0.0000     0.0000 no         1 BLP       0.289200
      3 O7           1.8270     0.0000     1.0550 o          1 BLP      -0.209500
      4 C16          1.9590     0.0000    -1.2810 ca         1 BLP      -0.131200
      5 C15          1.2780    -0.1390    -2.4730 ca         1 BLP      -0.085000
      6 C14          1.9680    -0.1390    -3.6720 ca         1 BLP      -0.135000
      7 C13          3.3440     0.0070    -3.6840 ca         1 BLP      -0.111000
      8 C12          4.0360     0.1530    -2.5010 ca         1 BLP      -0.099000
      9 C11          3.3460     0.1540    -1.2880 ca         1 BLP      -0.081600
     10 C10          4.0810     0.3110    -0.0140 c          1 BLP       0.666700
     11 O6           3.7700     1.1920     0.7630 o          1 BLP      -0.583100
     12 N4           5.0970    -0.5230     0.2840 ns         1 BLP      -0.557900
     13 C9           5.8250    -0.3690     1.5460 c3         1 BLP       0.038000
     14 C8           6.9040    -1.4180     1.6350 c          1 BLP       0.651100
     15 O5           7.0490    -2.2160     0.7340 o          1 BLP      -0.604100
     16 N3           7.7060    -1.4690     2.7170 ns         1 BLP      -0.454300
     17 N2           8.6830    -2.4190     2.7980 n7         1 BLP      -0.478200
     18 C7           9.3720    -2.2090     4.0790 c3         1 BLP       0.178100
     19 C6          10.4690    -3.2310     4.2330 ca         1 BLP      -0.106300
     20 C17         10.2180    -4.4590     4.8360 ca         1 BLP      -0.037200
     21 O9           8.9780    -4.7590     5.3020 oh         1 BLP      -0.533100
     22 C2          11.2560    -5.3700     4.9640 ca         1 BLP       0.353600
     23 C1          11.0020    -6.7030     5.6210 c3         1 BLP      -0.126400
     24 C4          11.7500    -2.9710     3.7730 ca         1 BLP      -0.118600
     25 C3          12.7310    -3.9320     3.9330 ca         1 BLP       0.439200
     26 N1          12.4620    -5.0850     4.5130 nb         1 BLP      -0.700000
     27 C5          12.0700    -1.6580     3.1070 c3         1 BLP       0.183700
     28 O1          13.4470    -1.6400     2.7270 os         1 BLP      -0.540200
     29 P1          13.7170    -0.2160     2.0260 p5         1 BLP       1.149900
     30 O2          15.2850    -0.0740     1.6880 o          1 BLP      -0.876167
     31 O3          12.8640    -0.1180     0.6640 o          1 BLP      -0.876167
     32 O4          13.3100     0.8710     2.9430 o          1 BLP      -0.876167
     33 H15          0.2000    -0.2540    -2.4700 ha         1 BLP       0.156000
     34 H14          1.4290    -0.2510    -4.6050 ha         1 BLP       0.134000
     35 H13          3.8790     0.0070    -4.6260 ha         1 BLP       0.140000
     36 H12          5.1130     0.2700    -2.5130 ha         1 BLP       0.165000
     37 HN4          5.3330    -1.2670    -0.3420 hn         1 BLP       0.341500
     38 H91          6.2750     0.6160     1.5850 h1         1 BLP       0.072700
     39 H92          5.1380    -0.4850     2.3760 h1         1 BLP       0.072700
     40 HN3          7.5980    -0.7980     3.4510 hn         1 BLP       0.316500
     41 HN2          8.2650    -3.3280     2.7890 hn         1 BLP       0.354800
     42 H71          9.8000    -1.2140     4.1000 h1         1 BLP       0.050200
     43 H72          8.6640    -2.3140     4.8910 h1         1 BLP       0.050200
     44 HO9          8.9440    -4.6010     6.2310 ho         1 BLP       0.400000
     45 H11         10.7510    -6.5500     6.6630 hc         1 BLP       0.034700
     46 H12A        11.8930    -7.3160     5.5500 hc         1 BLP       0.034700
     47 H13A        10.1810    -7.2010     5.1210 hc         1 BLP       0.034700
     48 H3          13.7350    -3.7360     3.5750 h4         1 BLP       0.078100
     49 H51         11.4510    -1.5400     2.2260 h1         1 BLP       0.073200
     50 H52         11.8750    -0.8460     3.7970 h1         1 BLP       0.073200
@<TRIPOS>BOND
     1     1     2 1
     2     2     3 1
     3     2     4 1
     4     4     5 ar
     5     4     9 ar
     6     5     6 ar
     7     5    33 1
     8     6     7 ar
     9     6    34 1
    10     7     8 ar
    11     7    35 1
    12     8     9 ar
    13     8    36 1
    14     9    10 1
    15    10    11 2
    16    10    12 1
    17    12    13 1
    18    12    37 1
    19    13    14 1
    20    13    38 1
    21    13    39 1
    22    14    15 2
    23    14    16 1
    24    16    17 1
    25    16    40 1
    26    17    18 1
    27    17    41 1
    28    18    19 1
    29    18    42 1
    30    18    43 1
    31    19    20 ar
    32    19    24 ar
    33    20    21 1
    34    20    22 ar
    35    21    44 1
    36    22    23 1
    37    22    26 ar
    38    23    45 1
    39    23    46 1
    40    23    47 1
    41    24    25 ar
    42    24    27 1
    43    25    26 ar
    44    25    48 1
    45    27    28 1
    46    27    49 1
    47    27    50 1
    48    28    29 1
    49    29    30 1
    50    29    31 1
    51    29    32 1
@<TRIPOS>SUBSTRUCTURE
     1 BLP         1 TEMP              0 ****  ****    0 ROOT
