@<TRIPOS>MOLECULE
BLP
   50    51     1     0     0
SMALL
bcc


@<TRIPOS>ATOM
      1 O8          1.7000    0.8900   -1.5060 o         1 BLP     -0.227500
      2 N5          2.4770    0.3270   -0.7720 no        1 BLP      0.318200
      3 O7          2.2070    0.1280    0.3800 o         1 BLP     -0.227500
      4 C16         3.7450   -0.1970   -1.3480 ca        1 BLP     -0.133200
      5 C15         3.6910   -0.7400   -2.6430 ca        1 BLP     -0.124000
      6 C14         4.8440   -1.2770   -3.2070 ca        1 BLP     -0.152000
      7 C13         6.0410   -1.2780   -2.4910 ca        1 BLP     -0.092000
      8 C12         6.0980   -0.7300   -1.2100 ca        1 BLP     -0.076000
      9 C11         4.9530   -0.1630   -0.6310 ca        1 BLP     -0.089600
     10 C10         5.0980    0.5510    0.6860 c         1 BLP      0.661700
     11 O6          4.6010    1.6900    0.8280 o         1 BLP     -0.628100
     12 N4          5.7530   -0.1390    1.6890 n         1 BLP     -0.493900
     13 C9          6.5780    0.5990    2.6220 c3        1 BLP     -0.029000
     14 C8          6.9040   -0.1710    3.8980 c         1 BLP      0.640100
     15 O5          6.8150    0.3860    5.0180 o         1 BLP     -0.683100
     16 N3          7.2850   -1.5200    3.7850 n         1 BLP     -0.418300
     17 N2          7.8200   -2.2190    4.8270 n3        1 BLP     -0.551200
     18 C7          9.2980   -2.1930    4.9780 c3        1 BLP      0.144100
     19 C6          9.9840   -3.1690    4.0700 ca        1 BLP     -0.109300
     20 C17         9.9850   -4.5420    4.4040 ca        1 BLP     -0.000200
     21 O9          9.3650   -5.0240    5.5420 oh        1 BLP     -0.536100
     22 C2         10.6710   -5.4790    3.5950 ca        1 BLP      0.339600
     23 C1         10.6960   -6.9130    4.0070 c3        1 BLP     -0.119400
     24 C4         10.6410   -2.7840    2.9000 ca        1 BLP     -0.131600
     25 C3         11.2710   -3.7970    2.1310 ca        1 BLP      0.391200
     26 N1         11.3100   -5.0930    2.4600 nb        1 BLP     -0.679000
     27 C5         10.7420   -1.3580    2.4180 c3        1 BLP      0.251700
     28 O1         10.7160   -1.2740    1.0450 os        1 BLP     -0.556200
     29 P1          9.3360   -0.4330    0.4590 p5        1 BLP      1.327900
     30 O2          9.4310   -0.4600   -1.0310 o         1 BLP     -0.921833
     31 O3          8.1940   -1.2760    1.0110 o         1 BLP     -0.921833
     32 O4          9.4140    0.8620    1.2150 o         1 BLP     -0.921833
     33 H15         2.7460   -0.7340   -3.2070 ha        1 BLP      0.136000
     34 H14         4.8040   -1.6990   -4.2210 ha        1 BLP      0.118000
     35 H13         6.9650   -1.6960   -2.9250 ha        1 BLP      0.167000
     36 H12         7.0830   -0.7600   -0.6570 ha        1 BLP      0.264000
     37 HN4         6.2080   -0.9940    1.3830 hn        1 BLP      0.354500
     38 H91         7.6050    0.8220    2.1360 h1        1 BLP      0.126200
     39 H92         6.0630    1.5560    2.9080 h1        1 BLP      0.126200
     40 HN3         7.6520   -1.8030    2.8680 hn        1 BLP      0.400500
     41 HN2         7.4500   -1.8120    5.6860 hn        1 BLP      0.351800
     42 H71         9.7410   -1.1670    4.8280 h1        1 BLP      0.046200
     43 H72         9.5140   -2.4970    6.0440 h1        1 BLP      0.046200
     44 HO9         8.5330   -4.5360    5.6370 ho        1 BLP      0.430000
     45 H11        11.5490   -7.0870    4.7090 hc        1 BLP      0.032367
     46 H12A       10.8130   -7.5950    3.1300 hc        1 BLP      0.032367
     47 H13A        9.7460   -7.1650    4.5390 hc        1 BLP      0.032367
     48 H3         11.7440   -3.5050    1.1720 h4        1 BLP      0.050100
     49 H51        11.7360   -0.9710    2.8020 h1        1 BLP      0.018200
     50 H52         9.9180   -0.7300    2.8660 h1        1 BLP      0.018200
@<TRIPOS>BOND
     1    1    2 1   
     2    2    3 1   
     3    2    4 1   
     4    4    5 ar  
     5    4    9 ar  
     6    5    6 ar  
     7    5   33 1   
     8    6    7 ar  
     9    6   34 1   
    10    7    8 ar  
    11    7   35 1   
    12    8    9 ar  
    13    8   36 1   
    14    9   10 1   
    15   10   11 2   
    16   10   12 1   
    17   12   13 1   
    18   12   37 1   
    19   13   14 1   
    20   13   38 1   
    21   13   39 1   
    22   14   15 2   
    23   14   16 1   
    24   16   17 1   
    25   16   40 1   
    26   17   18 1   
    27   17   41 1   
    28   18   19 1   
    29   18   42 1   
    30   18   43 1   
    31   19   20 ar  
    32   19   24 ar  
    33   20   21 1   
    34   20   22 ar  
    35   21   44 1   
    36   22   23 1   
    37   22   26 ar  
    38   23   45 1   
    39   23   46 1   
    40   23   47 1   
    41   24   25 ar  
    42   24   27 1   
    43   25   26 ar  
    44   25   48 1   
    45   27   28 1   
    46   27   49 1   
    47   27   50 1   
    48   28   29 1   
    49   29   30 1   
    50   29   31 1   
    51   29   32 1   
@<TRIPOS>SUBSTRUCTURE
     1 BLP         1 TEMP              0 ****  ****    0 ROOT
