@<TRIPOS>MOLECULE
BLQ
   39    40     1     0     0
SMALL
bcc


@<TRIPOS>ATOM
      1 CAA          0.0000     0.0000     0.0000 cc         1 BLQ       0.353900
      2 CAB          1.4160     0.0000     0.0000 cc         1 BLQ      -0.210600
      3 CAC          2.1130     0.0000     1.1590 cd         1 BLQ      -0.184200
      4 CAD          1.4360    -0.0000     2.3980 c          1 BLQ       0.574500
      5 CAE         -0.0320     0.0000     2.4140 cd         1 BLQ      -0.178400
      6 CAF         -0.7180     0.0060     1.2110 cc         1 BLQ      -0.170600
      7 CAG         -0.0060     0.3340    -4.6670 ca         1 BLQ      -0.163000
      8 CAH         -0.7630    -0.0000     3.6910 c          1 BLQ       0.972800
      9 CAI         -2.8230     0.5430    -7.1370 c          1 BLQ       0.584700
     10 CAJ         -2.8780     0.7700    -9.5620 c3         1 BLQ       0.052000
     11 CAK         -2.6330     1.0030   -12.0190 c          1 BLQ       0.984600
     12 CAL         -1.8820     0.8860   -10.7180 c3         1 BLQ      -0.148400
     13 CAM         -0.7060     0.2160    -3.4690 ca         1 BLQ       0.027600
     14 CAN         -2.0980     0.2050    -3.4710 ca         1 BLQ      -0.163000
     15 CAO         -2.7870     0.3110    -4.6580 ca         1 BLQ      -0.034500
     16 CAP         -2.0870     0.4290    -5.8620 ca         1 BLQ      -0.182600
     17 CAQ         -0.6910     0.4400    -5.8580 ca         1 BLQ      -0.034500
     18 NAR         -0.0120     0.1090    -2.2680 nu         1 BLQ      -0.008700
     19 NAS         -0.6590     0.0000    -1.1570 n2         1 BLQ      -0.468400
     20 NAT         -2.1480     0.6570    -8.2980 ns         1 BLQ      -0.194900
     21 OAU          2.0650    -0.0020     3.4440 o          1 BLQ      -0.504100
     22 OAV         -0.0850    -0.0010     4.8560 o          1 BLQ      -0.874800
     23 OAW         -1.9780     0.0000     3.6950 o          1 BLQ      -0.874800
     24 OAX         -3.8420     0.9940   -12.0220 o          1 BLQ      -0.900300
     25 OAY         -4.0390     0.5340    -7.1400 o          1 BLQ      -0.667100
     26 OAZ         -1.9600     1.1170   -13.1750 o          1 BLQ      -0.900300
     27 HAB          1.9490    -0.0020    -0.9430 ha         1 BLQ       0.083000
     28 HAC          3.1960    -0.0000     1.1360 ha         1 BLQ       0.099000
     29 HAF         -1.8010     0.0060     1.2020 ha         1 BLQ       0.140000
     30 HAG          1.0770     0.3430    -4.6630 ha         1 BLQ       0.120000
     31 HAJ         -3.4940    -0.1100    -9.7040 h1         1 BLQ       0.036700
     32 HAJA        -3.5070     1.6520    -9.5380 h1         1 BLQ       0.036700
     33 HAL         -1.2660     1.7660   -10.5760 hc         1 BLQ       0.005700
     34 HALA        -1.2530     0.0050   -10.7420 hc         1 BLQ       0.005700
     35 HAN         -2.6400     0.1130    -2.5370 ha         1 BLQ       0.120000
     36 HAO         -3.8700     0.3020    -4.6600 ha         1 BLQ       0.114500
     37 HAQ         -0.1460     0.5320    -6.7900 ha         1 BLQ       0.114500
     38 HNAR         0.9890     0.0920    -2.2680 hn         1 BLQ       0.268800
     39 HNAT        -1.1470     0.6640    -8.2960 hn         1 BLQ       0.167500
@<TRIPOS>BOND
     1     1     2 1   
     2     1     6 1   
     3     1    19 2   
     4     2     3 2   
     5     2    27 1   
     6     3     4 1   
     7     3    28 1   
     8     4     5 1   
     9     4    21 2   
    10     5     6 2   
    11     5     8 1   
    12     6    29 1   
    13     7    13 ar  
    14     7    17 ar  
    15     7    30 1   
    16     8    22 1   
    17     8    23 1   
    18     9    16 1   
    19     9    20 1   
    20     9    25 2   
    21    10    12 1   
    22    10    20 1   
    23    10    31 1   
    24    10    32 1   
    25    11    12 1   
    26    11    24 1   
    27    11    26 1   
    28    12    33 1   
    29    12    34 1   
    30    13    14 ar  
    31    13    18 1   
    32    14    15 ar  
    33    14    35 1   
    34    15    16 ar  
    35    15    36 1   
    36    16    17 ar  
    37    17    37 1   
    38    18    19 1   
    39    18    38 1   
    40    20    39 1   
@<TRIPOS>SUBSTRUCTURE
     1 BLQ         1 TEMP              0 ****  ****    0 ROOT
