@<TRIPOS>MOLECULE
BLR
   77    80     1     0     0
SMALL
bcc


@<TRIPOS>ATOM
      1 CHA          0.0000     0.0000     0.0000 c3         1 BLR       0.165200
      2 NA           2.2960     0.0000     1.1050 na         1 BLR       0.405900
      3 C1A          1.5070     0.0000     0.0000 cc         1 BLR      -0.308600
      4 C2A          2.2950     0.0020    -1.1040 cd         1 BLR      -0.137300
      5 C3A          3.6260     0.0010    -0.6830 cd         1 BLR      -0.128300
      6 C4A          3.6140     0.0060     0.7050 cc         1 BLR      -0.317100
      7 CMA          4.8460     0.0040    -1.5680 c3         1 BLR       0.097200
      8 CAA          1.8180     0.0030    -2.5330 c3         1 BLR       0.074900
      9 CBA          1.6570     1.4450    -3.0170 c3         1 BLR      -0.136400
     10 CGA          1.1800     1.4460    -4.4460 c          1 BLR       0.976600
     11 O1A          0.9680     2.6090    -5.0820 o          1 BLR      -0.907800
     12 O2A          0.9880     0.4000    -5.0190 o          1 BLR      -0.907800
     13 CHB          4.7430     0.0070     1.5490 ce         1 BLR      -0.005200
     14 NB           3.4720     0.9180     3.4560 ns         1 BLR      -0.031100
     15 C1B          4.6130     0.3730     2.8760 cd         1 BLR      -0.147400
     16 C2B          5.6090     0.2520     3.8560 cd         1 BLR      -0.046200
     17 C3B          5.0800     0.7270     5.0480 cc         1 BLR      -0.170200
     18 C4B          3.7100     1.1530     4.7610 c          1 BLR       0.643700
     19 CMB          6.9970    -0.2970     3.6520 c3         1 BLR       0.080100
     20 OB           2.9220     1.6280     5.5610 o          1 BLR      -0.672500
     21 CAB          5.7680     0.7930     6.3500 ce         1 BLR      -0.063000
     22 CBB          5.1330     1.2750     7.4130 c2         1 BLR      -0.182000
     23 NC          -2.1760    -2.5840    -3.6710 ns         1 BLR      -0.039100
     24 C1C         -2.5700    -2.6100    -4.9550 c          1 BLR       0.605700
     25 C2C         -2.7600    -3.9320    -5.3720 cc         1 BLR      -0.214400
     26 C3C         -2.4720    -4.7670    -4.3010 cd         1 BLR      -0.026000
     27 C4C         -2.0850    -3.8860    -3.1940 cd         1 BLR      -0.190400
     28 CAC         -2.5350    -6.2390    -4.2820 cf         1 BLR      -0.056000
     29 CBC         -3.6290    -6.8620    -4.7100 c2         1 BLR      -0.179000
     30 ND          -0.8630    -2.0260    -1.2830 na         1 BLR       0.401900
     31 C1D         -1.2650    -3.3120    -0.9960 cc         1 BLR      -0.347100
     32 C2D         -1.1520    -3.4860     0.3750 cd         1 BLR      -0.110300
     33 C3D         -0.6740    -2.2830     0.9020 cd         1 BLR      -0.143300
     34 C4D         -0.5020    -1.4150    -0.1250 cc         1 BLR      -0.283600
     35 CGD          1.3360    -2.0890     4.1300 c          1 BLR       0.965600
     36 O1D          2.5530    -2.3370     4.6390 o          1 BLR      -0.899800
     37 O2D          0.4650    -1.6420     4.8380 o          1 BLR      -0.899800
     38 H1          -0.3610     0.5870    -0.8360 hc         1 BLR       0.029200
     39 H2          -0.3610     0.4310     0.9260 hc         1 BLR       0.029200
     40 H3           1.9740     0.0020     2.0530 hn         1 BLR       0.154700
     41 H4           5.5710    -0.7040    -1.1860 hc         1 BLR       0.000033
     42 H5           4.5630    -0.2770    -2.5750 hc         1 BLR       0.000033
     43 H6           5.2810     0.9960    -1.5790 hc         1 BLR       0.000033
     44 H7           2.5430    -0.5080    -3.1560 hc         1 BLR       0.013700
     45 H8           0.8650    -0.5080    -2.5960 hc         1 BLR       0.013700
     46 H9           0.9320     1.9560    -2.3940 hc         1 BLR       0.008700
     47 H10          2.6100     1.9560    -2.9540 hc         1 BLR       0.008700
     48 H12          5.7180    -0.2430     1.1490 ha         1 BLR       0.113000
     49 H13          2.6140     1.1110     2.9790 hn         1 BLR       0.183500
     50 H14          7.6220     0.4620     3.1950 hc         1 BLR       0.004367
     51 H15          7.4170    -0.5810     4.6090 hc         1 BLR       0.004367
     52 H16          6.9510    -1.1640     3.0050 hc         1 BLR       0.004367
     53 H17          6.7910     0.4500     6.4390 ha         1 BLR       0.082000
     54 H18          4.1100     1.6180     7.3230 ha         1 BLR       0.097500
     55 H19          5.6390     1.3230     8.3700 ha         1 BLR       0.097500
     56 H20         -1.9750    -1.7570    -3.1430 hn         1 BLR       0.197500
     57 H21         -2.9550    -3.6040    -7.4670 hc         1 BLR       0.005367
     58 H22         -2.6930    -5.2920    -7.0090 hc         1 BLR       0.005367
     59 H23         -4.2720    -4.5380    -6.7440 hc         1 BLR       0.005367
     60 H24         -1.6720    -6.8140    -3.9670 ha         1 BLR       0.103000
     61 H25         -3.6760    -7.9440    -4.6960 ha         1 BLR       0.083500
     62 H26         -4.4890    -6.2870    -5.0300 ha         1 BLR       0.083500
     63 H27         -1.6790    -5.3270    -1.6710 ha         1 BLR       0.114000
     64 H28         -0.8460    -1.6090    -2.1930 hn         1 BLR       0.141700
     65 H29         -2.3360    -5.2250     0.6990 hc         1 BLR       0.001700
     66 H30         -0.6300    -5.4060     1.1310 hc         1 BLR       0.001700
     67 H31         -1.7130    -4.4740     2.1750 hc         1 BLR       0.001700
     68 H32         -1.0600    -2.5940     2.9730 hc         1 BLR       0.021200
     69 H33         -0.5530    -0.9510     2.5580 hc         1 BLR       0.021200
     70 H34          1.7230    -1.7800     2.0590 hc         1 BLR       0.012700
     71 H35          1.2160    -3.4230     2.4750 hc         1 BLR       0.012700
     72 CMD         -1.4810    -4.7360     1.1490 c3         1 BLR       0.094200
     73 CHD         -1.7120    -4.2740    -1.9260 ce         1 BLR       0.022800
     74 CMC         -3.2010    -4.3720    -6.7440 c3         1 BLR       0.095100
     75 CAD         -0.3940    -2.0030     2.3560 c3         1 BLR       0.068900
     76 OC          -2.7390    -1.6250    -5.6550 o          1 BLR      -0.647500
     77 CBD          1.0570    -2.3700     2.6760 c3         1 BLR      -0.157400
@<TRIPOS>BOND
     1     1     3 1   
     2     1    34 1   
     3     1    38 1   
     4     1    39 1   
     5     2     3 1   
     6     2     6 1   
     7     2    40 1   
     8     3     4 2   
     9     4     5 1   
    10     4     8 1   
    11     5     6 2   
    12     5     7 1   
    13     6    13 1   
    14     7    41 1   
    15     7    42 1   
    16     7    43 1   
    17     8     9 1   
    18     8    44 1   
    19     8    45 1   
    20     9    10 1   
    21     9    46 1   
    22     9    47 1   
    23    10    11 1   
    24    10    12 1   
    25    13    15 2   
    26    13    48 1   
    27    14    15 1   
    28    14    18 1   
    29    14    49 1   
    30    15    16 1   
    31    16    17 2   
    32    16    19 1   
    33    17    18 1   
    34    17    21 1   
    35    18    20 2   
    36    19    50 1   
    37    19    51 1   
    38    19    52 1   
    39    21    22 2   
    40    21    53 1   
    41    22    54 1   
    42    22    55 1   
    43    23    24 1   
    44    23    27 1   
    45    23    56 1   
    46    24    25 1   
    47    24    76 2   
    48    25    26 2   
    49    25    74 1   
    50    26    27 1   
    51    26    28 1   
    52    27    73 2   
    53    28    29 2   
    54    28    60 1   
    55    29    61 1   
    56    29    62 1   
    57    30    31 1   
    58    30    34 1   
    59    30    64 1   
    60    31    32 2   
    61    31    73 1   
    62    32    33 1   
    63    32    72 1   
    64    33    34 2   
    65    33    75 1   
    66    35    36 1   
    67    35    37 1   
    68    35    77 1   
    69    57    74 1   
    70    58    74 1   
    71    59    74 1   
    72    63    73 1   
    73    65    72 1   
    74    66    72 1   
    75    67    72 1   
    76    68    75 1   
    77    69    75 1   
    78    70    77 1   
    79    71    77 1   
    80    75    77 1   
@<TRIPOS>SUBSTRUCTURE
     1 BLR         1 TEMP              0 ****  ****    0 ROOT
