@<TRIPOS>MOLECULE
molecule
   77    80     1     0     0
SMALL
bcc


@<TRIPOS>ATOM
      1 CHA          0.0000     0.0000     0.0000 c3         1 BLR       0.062200
      2 NA           2.2960     0.0000     1.1050 na         1 BLR      -0.145100
      3 C1A          1.5070     0.0000     0.0000 cc         1 BLR      -0.106600
      4 C2A          2.2950     0.0020    -1.1040 cd         1 BLR      -0.134300
      5 C3A          3.6260     0.0010    -0.6830 cd         1 BLR      -0.127300
      6 C4A          3.6140     0.0060     0.7050 cc         1 BLR      -0.114100
      7 CMA          4.8460     0.0040    -1.5680 c3         1 BLR      -0.012800
      8 CAA          1.8180     0.0030    -2.5330 c3         1 BLR       0.010900
      9 CBA          1.6570     1.4450    -3.0170 c3         1 BLR      -0.181400
     10 CGA          1.1800     1.4460    -4.4460 c          1 BLR       0.886600
     11 O1A          0.9680     2.6090    -5.0820 o          1 BLR      -0.859300
     12 O2A          0.9880     0.4000    -5.0190 o          1 BLR      -0.859300
     13 CHB          4.7430     0.0070     1.5490 ce         1 BLR      -0.072200
     14 NB           3.4720     0.9180     3.4560 ns         1 BLR      -0.466100
     15 C1B          4.6130     0.3730     2.8760 cd         1 BLR       0.019600
     16 C2B          5.6090     0.2520     3.8560 cd         1 BLR      -0.047200
     17 C3B          5.0800     0.7270     5.0480 cc         1 BLR      -0.156200
     18 C4B          3.7100     1.1530     4.7610 c          1 BLR       0.727700
     19 CMB          6.9970    -0.2970     3.6520 c3         1 BLR      -0.032900
     20 OB           2.9220     1.6280     5.5610 o          1 BLR      -0.630500
     21 CAB          5.7680     0.7930     6.3500 ce         1 BLR      -0.101000
     22 CBB          5.1330     1.2750     7.4130 c2         1 BLR      -0.216000
     23 NC          -2.1760    -2.5840    -3.6710 ns         1 BLR      -0.470100
     24 C1C         -2.5700    -2.6100    -4.9550 c          1 BLR       0.708700
     25 C2C         -2.7600    -3.9320    -5.3720 cc         1 BLR      -0.240400
     26 C3C         -2.4720    -4.7670    -4.3010 cd         1 BLR       0.001000
     27 C4C         -2.0850    -3.8860    -3.1940 cd         1 BLR      -0.050400
     28 CAC         -2.5350    -6.2390    -4.2820 cf         1 BLR      -0.093000
     29 CBC         -3.6290    -6.8620    -4.7100 c2         1 BLR      -0.229000
     30 ND          -0.8630    -2.0260    -1.2830 na         1 BLR      -0.149100
     31 C1D         -1.2650    -3.3120    -0.9960 cc         1 BLR      -0.148100
     32 C2D         -1.1520    -3.4860     0.3750 cd         1 BLR      -0.102300
     33 C3D         -0.6740    -2.2830     0.9020 cd         1 BLR      -0.144300
     34 C4D         -0.5020    -1.4150    -0.1250 cc         1 BLR      -0.073600
     35 CGD          1.3360    -2.0890     4.1300 c          1 BLR       0.877600
     36 O1D          2.5530    -2.3370     4.6390 o          1 BLR      -0.853800
     37 O2D          0.4650    -1.6420     4.8380 o          1 BLR      -0.853800
     38 H1          -0.3610     0.5870    -0.8360 hc         1 BLR       0.067700
     39 H2          -0.3610     0.4310     0.9260 hc         1 BLR       0.067700
     40 H3           1.9740     0.0020     2.0530 hn         1 BLR       0.321700
     41 H4           5.3540     0.9570    -1.4790 hc         1 BLR       0.033367
     42 H5           4.5460    -0.1500    -2.5970 hc         1 BLR       0.033367
     43 H6           5.5150    -0.7910    -1.2630 hc         1 BLR       0.033367
     44 H7           2.5430    -0.5080    -3.1560 hc         1 BLR       0.041200
     45 H8           0.8650    -0.5080    -2.5960 hc         1 BLR       0.041200
     46 H9           0.9320     1.9560    -2.3940 hc         1 BLR       0.031700
     47 H10          2.6100     1.9560    -2.9540 hc         1 BLR       0.031700
     48 H12          5.6780    -0.4100     1.1950 ha         1 BLR       0.145000
     49 H13          2.6140     1.1110     2.9790 hn         1 BLR       0.343500
     50 H14          7.4730    -0.4430     4.6140 hc         1 BLR       0.041033
     51 H15          7.5790     0.4030     3.0640 hc         1 BLR       0.041033
     52 H16          6.9380    -1.2440     3.1300 hc         1 BLR       0.041033
     53 H17          6.7910     0.4500     6.4400 ha         1 BLR       0.107000
     54 H18          5.6390     1.3230     8.3700 ha         1 BLR       0.123000
     55 H19          4.1100     1.6180     7.3230 ha         1 BLR       0.123000
     56 H20         -1.9750    -1.7570    -3.1430 hn         1 BLR       0.351500
     57 H21         -4.2330    -4.6980    -6.7050 hc         1 BLR       0.041700
     58 H22         -2.5760    -5.1920    -7.0790 hc         1 BLR       0.041700
     59 H23         -3.1100    -3.5440    -7.4360 hc         1 BLR       0.041700
     60 H24         -1.8540    -6.1480    -5.1190 ha         1 BLR       0.113000
     61 H25         -3.8240    -6.6500    -5.7540 ha         1 BLR       0.116500
     62 H26         -4.5180    -6.2700    -4.5320 ha         1 BLR       0.116500
     63 H27         -1.6790    -5.3270    -1.6710 ha         1 BLR       0.154000
     64 H28         -0.8400    -1.6110    -2.1930 hn         1 BLR       0.311700
     65 H29         -0.6110    -5.3800     1.1820 hc         1 BLR       0.037033
     66 H30         -2.2980    -5.2570     0.6640 hc         1 BLR       0.037033
     67 H31         -1.7710    -4.4690     2.1580 hc         1 BLR       0.037033
     68 H32         -1.0600    -2.5940     2.9730 hc         1 BLR       0.047200
     69 H33         -0.5530    -0.9510     2.5580 hc         1 BLR       0.047200
     70 H34          1.2160    -3.4230     2.4750 hc         1 BLR       0.037700
     71 H35          1.7230    -1.7800     2.0590 hc         1 BLR       0.037700
     72 CMD         -1.4810    -4.7360     1.1490 c3         1 BLR      -0.016800
     73 CHD         -1.7120    -4.2740    -1.9260 ce         1 BLR      -0.022200
     74 CMC         -3.2010    -4.3720    -6.7440 c3         1 BLR      -0.021900
     75 CAD         -0.3940    -2.0030     2.3560 c3         1 BLR       0.003900
     76 OC          -2.7390    -1.6250    -5.6550 o          1 BLR      -0.610500
     77 CBD          1.0570    -2.3700     2.6760 c3         1 BLR      -0.193400
@<TRIPOS>BOND
     1    19    16 1
     2    21    22 2
     3    21    17 1
     4    16    17 2
     5    16    15 1
     6    17    18 1
     7     7     5 1
     8    13    15 2
     9    13     6 1
    10    15    14 1
    11    18    14 1
    12    18    20 2
    13     5     6 2
    14     5     4 1
    15     6     2 1
    16     4     8 1
    17     4     3 2
    18     8     9 1
    19    12    10 1
    20     2     3 1
    21     9    10 1
    22    10    11 1
    23     3     1 1
    24     1    34 1
    25    37    35 1
    26    75    33 1
    27    75    77 1
    28    34    33 2
    29    34    30 1
    30    33    32 1
    31    35    77 1
    32    35    36 1
    33    30    31 1
    34    32    72 1
    35    32    31 2
    36    31    73 1
    37    73    27 2
    38    27    23 1
    39    27    26 1
    40    23    24 1
    41    28    26 1
    42    28    29 2
    43    26    25 2
    44    24    25 1
    45    24    76 2
    46    25    74 1
    47     1    38 1
    48     1    39 1
    49     2    40 1
    50     7    41 1
    51     7    42 1
    52     7    43 1
    53     8    44 1
    54     8    45 1
    55     9    46 1
    56     9    47 1
    57    13    48 1
    58    14    49 1
    59    19    50 1
    60    19    51 1
    61    19    52 1
    62    21    53 1
    63    22    54 1
    64    22    55 1
    65    23    56 1
    66    74    57 1
    67    74    58 1
    68    74    59 1
    69    28    60 1
    70    29    61 1
    71    29    62 1
    72    73    63 1
    73    30    64 1
    74    72    65 1
    75    72    66 1
    76    72    67 1
    77    75    68 1
    78    75    69 1
    79    77    70 1
    80    77    71 1
@<TRIPOS>SUBSTRUCTURE
     1 BLR         1 TEMP              0 ****  ****    0 ROOT
