@<TRIPOS>MOLECULE
BLS
   60    61     1     0     0
SMALL
bcc


@<TRIPOS>ATOM
      1 O4          1.2580    0.4070    0.0650 oh        1 BLS     -0.524100
      2 N1          5.2910   -0.9580    1.9860 n         1 BLS     -0.368000
      3 C2          5.5980    0.4490    1.8820 c         1 BLS      0.844900
      4 O2          4.7460    1.2860    2.2100 o         1 BLS     -0.541500
      5 N3          6.8810    0.8410    1.4010 nc        1 BLS     -0.600100
      6 C4          7.7290   -0.1020    1.0410 cd        1 BLS      0.621500
      7 N4          9.0680    0.3180    0.5500 n4        1 BLS     -0.803600
      8 C5          7.4530   -1.5160    1.0860 cd        1 BLS     -0.401600
      9 C6          6.2100   -1.8860    1.5650 cc        1 BLS      0.117600
     10 C1'         3.9960   -1.3940    2.5260 c3        1 BLS      0.358700
     11 C2'         3.8590   -1.1150    3.9980 c2        1 BLS     -0.201200
     12 C3'         2.9300   -0.3070    4.5130 c2        1 BLS     -0.127200
     13 C4'         1.9820    0.4320    3.6110 c3        1 BLS      0.100900
     14 C5'         1.7550   -0.4790    2.3620 c3        1 BLS      0.047100
     15 O5'         2.9840   -0.7650    1.7060 os        1 BLS     -0.437600
     16 O3         -0.2680    0.6350    1.5870 o         1 BLS     -0.659000
     17 C6'         0.8750    0.2070    1.3340 c         1 BLS      0.706100
     18 N6          0.7350    0.7850    4.2620 n         1 BLS     -0.511900
     19 C7          0.0280    1.8890    3.8720 c         1 BLS      0.677100
     20 O7          0.5170    2.8160    3.1870 o         1 BLS     -0.624100
     21 C8         -1.4460    2.0080    4.2870 c3        1 BLS     -0.191400
     22 C9         -2.1350    3.0690    3.4060 c3        1 BLS      0.145500
     23 N9         -2.0190    2.6930    1.9590 n4        1 BLS     -0.845600
     24 C10        -3.5990    3.2920    3.8420 c3        1 BLS     -0.137400
     25 C11        -3.6370    4.2950    4.9960 c3        1 BLS      0.105800
     26 N12        -4.9920    4.4810    5.6440 n4        1 BLS     -0.700400
     27 C13        -4.8190    5.0110    7.0390 c3        1 BLS      0.069100
     28 C14        -5.9120    5.4240    4.8840 c2        1 BLS      0.610100
     29 N14        -5.6210    6.4460    4.1900 n2        1 BLS     -0.592100
     30 N15        -7.3820    5.1270    5.0470 n4        1 BLS     -0.820600
     31 HN41        9.7860   -0.0860    1.1680 hn        1 BLS      0.491800
     32 HN42        9.1980   -0.0420   -0.4060 hn        1 BLS      0.491800
     33 H5          8.1770   -2.2760    0.7630 ha        1 BLS      0.205000
     34 H6          5.9310   -2.9610    1.6270 h4        1 BLS      0.208000
     35 H1'         3.8920   -2.5110    2.3400 h2        1 BLS      0.109700
     36 H2'         4.5820   -1.6470    4.6410 ha        1 BLS      0.184000
     37 H3'         2.8530   -0.1310    5.6000 ha        1 BLS      0.178000
     38 H4'         2.4990    1.3880    3.2650 h1        1 BLS      0.154700
     39 H5'         1.2610   -1.4480    2.6630 h1        1 BLS      0.102700
     40 HN6         0.2980    0.0850    4.8180 hn        1 BLS      0.334500
     41 H81        -1.4910    2.3350    5.3580 hc        1 BLS      0.101700
     42 H82        -1.9620    1.0160    4.1930 hc        1 BLS      0.101700
     43 H9         -1.5490    4.0390    3.5130 hx        1 BLS      0.139700
     44 HN91       -2.3540    1.7330    1.7910 hn        1 BLS      0.491133
     45 HN92       -2.5160    3.3490    1.3550 hn        1 BLS      0.491133
     46 H101       -4.2120    3.6810    2.9840 hc        1 BLS      0.090700
     47 H102       -4.0370    2.3050    4.1570 hc        1 BLS      0.090700
     48 H111       -2.9510    3.9230    5.8230 hx        1 BLS      0.134700
     49 H112       -3.2430    5.2990    4.6670 hx        1 BLS      0.134700
     50 H131       -4.2530    5.9840    7.0150 hx        1 BLS      0.139367
     51 H132       -5.8240    5.1670    7.5180 hx        1 BLS      0.139367
     52 H133       -4.2400    4.2600    7.6520 hx        1 BLS      0.139367
     53 HN14       -4.7050    6.8110    4.0100 hn        1 BLS      0.541400
     54 H151       -7.6580    5.1810    6.0420 hn        1 BLS      0.517467
     55 H152       -7.9410    5.8440    4.5250 hn        1 BLS      0.517467
     56 H43         9.1670    1.3460    0.5430 hn        1 BLS      0.491800
     57 H62         2.1510    0.0530   -0.1050 ho        1 BLS      0.485000
     58 H93        -0.9990    2.6910    1.7040 hn        1 BLS      0.491133
     59 H121       -5.4250    3.5450    5.7020 hn        1 BLS      0.468800
     60 H153       -7.6210    4.2000    4.6620 hn        1 BLS      0.517467
@<TRIPOS>BOND
     1    1   17 1   
     2    1   57 1   
     3    2    3 1   
     4    2    9 1   
     5    2   10 1   
     6    3    4 2   
     7    3    5 1   
     8    5    6 2   
     9    6    7 1   
    10    6    8 1   
    11    7   31 1   
    12    7   32 1   
    13    7   56 1   
    14    8    9 2   
    15    8   33 1   
    16    9   34 1   
    17   10   11 1   
    18   10   15 1   
    19   10   35 1   
    20   11   12 2   
    21   11   36 1   
    22   12   13 1   
    23   12   37 1   
    24   13   14 1   
    25   13   18 1   
    26   13   38 1   
    27   14   15 1   
    28   14   17 1   
    29   14   39 1   
    30   16   17 2   
    31   18   19 1   
    32   18   40 1   
    33   19   20 2   
    34   19   21 1   
    35   21   22 1   
    36   21   41 1   
    37   21   42 1   
    38   22   23 1   
    39   22   24 1   
    40   22   43 1   
    41   23   44 1   
    42   23   45 1   
    43   23   58 1   
    44   24   25 1   
    45   24   46 1   
    46   24   47 1   
    47   25   26 1   
    48   25   48 1   
    49   25   49 1   
    50   26   27 1   
    51   26   28 1   
    52   26   59 1   
    53   27   50 1   
    54   27   51 1   
    55   27   52 1   
    56   28   29 2   
    57   28   30 1   
    58   29   53 1   
    59   30   54 1   
    60   30   55 1   
    61   30   60 1   
@<TRIPOS>SUBSTRUCTURE
     1 BLS         1 TEMP              0 ****  ****    0 ROOT
