@<TRIPOS>MOLECULE
BLV
   75    78     1     0     0
SMALL
bcc


@<TRIPOS>ATOM
      1 NA          0.0430    1.9720    0.3520 n         1 BLV     -0.501100
      2 C1A         0.9610    3.0590    0.4550 c         1 BLV      0.682700
      3 C2A         1.5010    3.0480    1.8620 cc        1 BLV     -0.133400
      4 C3A         0.8610    2.0590    2.5520 cd        1 BLV     -0.045200
      5 C4A        -0.1240    1.3950    1.6380 cd        1 BLV      0.052600
      6 CMA         1.0370    1.6730    3.9530 c3        1 BLV     -0.085900
      7 OA          1.2130    3.8170   -0.4890 o         1 BLV     -0.613500
      8 CAA         2.4890    4.0350    2.3220 c3        1 BLV     -0.021200
      9 CBA         3.7030    3.4290    3.0010 c3        1 BLV     -0.196400
     10 CGA         3.9110    4.0060    4.4130 c         1 BLV      0.906600
     11 O1A         2.9170    4.0320    5.2020 o         1 BLV     -0.849800
     12 O2A         5.0640    4.4130    4.7260 o         1 BLV     -0.849800
     13 CHB        -1.0170    0.4450    1.9870 ce        1 BLV     -0.157200
     14 NB         -1.7890   -0.5230   -0.1990 na        1 BLV     -0.157100
     15 C1B        -2.0300   -0.0860    1.1050 cc        1 BLV     -0.055100
     16 C2B        -3.4150   -0.1870    1.3560 cd        1 BLV     -0.134300
     17 C3B        -4.0360   -0.6760    0.1510 cd        1 BLV     -0.122800
     18 C4B        -3.0010   -0.8730   -0.7960 cc        1 BLV     -0.066100
     19 CMB        -4.1000    0.1530    2.6040 c3        1 BLV     -0.017800
     20 CAB        -5.4450   -0.8960   -0.0010 cf        1 BLV     -0.055200
     21 CBB        -6.0420   -1.5300   -1.0140 c2        1 BLV     -0.256000
     22 CHC        -3.1190   -1.2330   -2.1870 ce        1 BLV     -0.141200
     23 NC         -1.5380   -3.1530   -2.2560 na        1 BLV     -0.608800
     24 C1C        -2.4560   -2.2250   -2.8180 cd        1 BLV      0.115000
     25 C2C        -2.5520   -2.5220   -4.2780 cd        1 BLV     -0.066200
     26 C3C        -1.8110   -3.6460   -4.5340 cc        1 BLV     -0.067000
     27 C4C        -1.2430   -4.1300   -3.2330 cc        1 BLV      0.183000
     28 CMC        -3.3030   -1.6780   -5.2090 c3        1 BLV     -0.048900
     29 CAC        -1.5490   -4.3140   -5.7800 ce        1 BLV     -0.102000
     30 CBC        -2.3840   -4.3400   -6.8230 c2        1 BLV     -0.215000
     31 CHD        -0.5980   -5.3140   -3.0830 cf        1 BLV     -0.290600
     32 ND         -0.2690   -5.3980   -0.6340 nc        1 BLV     -0.681100
     33 C1D        -0.1710   -5.9120   -1.8460 cd        1 BLV      0.546900
     34 C2D         0.4260   -7.3110   -1.8460 cd        1 BLV     -0.203800
     35 C3D         0.6790   -7.6290   -0.5490 cc        1 BLV     -0.136400
     36 C4D         0.2530   -6.4130    0.2820 c         1 BLV      0.657700
     37 CMD         0.6240   -8.0740   -3.0770 c3        1 BLV     -0.071900
     38 OD          0.3230   -6.2860    1.5020 o         1 BLV     -0.492100
     39 CAD         1.1990   -8.8350    0.1070 c3        1 BLV     -0.023200
     40 CBD         2.3360   -9.5240   -0.6190 c3        1 BLV     -0.195400
     41 CGD         1.8760  -10.8140   -1.3230 c         1 BLV      0.902600
     42 O1D         1.2370  -11.6760   -0.6540 o         1 BLV     -0.850300
     43 O2D         2.1670  -10.9520   -2.5490 o         1 BLV     -0.850300
     44 HA         -0.6900    1.9690   -0.3120 hn        1 BLV      0.314500
     45 HMA1        1.5880    0.7000    4.0180 hc        1 BLV      0.074367
     46 HMA2        0.0470    1.5510    4.4570 hc        1 BLV      0.074367
     47 HMA3        1.6370    2.4590    4.5020 hc        1 BLV      0.074367
     48 HAA1        2.8110    4.6650    1.4500 hc        1 BLV      0.062700
     49 HAA2        1.9720    4.7140    3.0620 hc        1 BLV      0.062700
     50 HBA1        4.6190    3.6200    2.3880 hc        1 BLV      0.033200
     51 HBA2        3.5860    2.3200    3.1070 hc        1 BLV      0.033200
     52 HHB        -1.0330    0.0690    3.0230 ha        1 BLV      0.159000
     53 HMB1       -4.6820   -0.7260    2.9830 hc        1 BLV      0.036367
     54 HMB2       -4.8160    0.9980    2.4410 hc        1 BLV      0.036367
     55 HMB3       -3.3660    0.4580    3.3910 hc        1 BLV      0.036367
     56 HAB        -6.0520   -0.4920    0.8320 ha        1 BLV      0.114000
     57 HBB1       -5.4900   -1.9730   -1.8510 ha        1 BLV      0.106000
     58 HBB2       -7.1310   -1.6550   -1.0540 ha        1 BLV      0.106000
     59 HHC        -3.8350   -0.6190   -2.7610 ha        1 BLV      0.145000
     60 HMC1       -4.3800   -1.9860   -5.2280 hc        1 BLV      0.050367
     61 HMC2       -2.8920   -1.7710   -6.2470 hc        1 BLV      0.050367
     62 HMC3       -3.2500   -0.6020   -4.9030 hc        1 BLV      0.050367
     63 HAC        -0.5740   -4.8340   -5.8320 ha        1 BLV      0.139000
     64 HBC1       -2.1280   -4.8630   -7.7530 ha        1 BLV      0.111500
     65 HBC2       -3.3730   -3.8630   -6.8110 ha        1 BLV      0.111500
     66 HHD        -0.3980   -5.9200   -3.9840 ha        1 BLV      0.154000
     67 HMD1        1.0790   -9.0840   -2.8690 hc        1 BLV      0.066700
     68 HMD2        1.3060   -7.5200   -3.7710 hc        1 BLV      0.066700
     69 HMD3       -0.3550   -8.2300   -3.5970 hc        1 BLV      0.066700
     70 HAD1        1.5260   -8.5520    1.1460 hc        1 BLV      0.066200
     71 HAD2        0.3530   -9.5750    0.2240 hc        1 BLV      0.066200
     72 HBD1        2.8070   -8.8400   -1.3680 hc        1 BLV      0.031200
     73 HBD2        3.1220   -9.8130    0.1240 hc        1 BLV      0.031200
     74 HB         -0.8970   -0.6150   -0.6160 hn        1 BLV      0.313700
     75 HC         -1.5970   -3.3930   -1.2910 hn        1 BLV      0.472800
@<TRIPOS>BOND
     1    1    2 1   
     2    1    5 1   
     3    1   44 1   
     4    2    3 1   
     5    2    7 2   
     6    3    4 2   
     7    3    8 1   
     8    4    5 1   
     9    4    6 1   
    10    5   13 2   
    11    6   45 1   
    12    6   46 1   
    13    6   47 1   
    14    8    9 1   
    15    8   48 1   
    16    8   49 1   
    17    9   10 1   
    18    9   50 1   
    19    9   51 1   
    20   10   11 1   
    21   10   12 1   
    22   13   15 1   
    23   13   52 1   
    24   14   15 1   
    25   14   18 1   
    26   14   74 1   
    27   15   16 2   
    28   16   17 1   
    29   16   19 1   
    30   17   18 2   
    31   17   20 1   
    32   18   22 1   
    33   19   53 1   
    34   19   54 1   
    35   19   55 1   
    36   20   21 2   
    37   20   56 1   
    38   21   57 1   
    39   21   58 1   
    40   22   24 2   
    41   22   59 1   
    42   23   24 1   
    43   23   27 1   
    44   23   75 1   
    45   24   25 1   
    46   25   26 2   
    47   25   28 1   
    48   26   27 1   
    49   26   29 1   
    50   27   31 2   
    51   28   60 1   
    52   28   61 1   
    53   28   62 1   
    54   29   30 2   
    55   29   63 1   
    56   30   64 1   
    57   30   65 1   
    58   31   33 1   
    59   31   66 1   
    60   32   33 2   
    61   32   36 1   
    62   33   34 1   
    63   34   35 2   
    64   34   37 1   
    65   35   36 1   
    66   35   39 1   
    67   36   38 2   
    68   37   67 1   
    69   37   68 1   
    70   37   69 1   
    71   39   40 1   
    72   39   70 1   
    73   39   71 1   
    74   40   41 1   
    75   40   72 1   
    76   40   73 1   
    77   41   42 1   
    78   41   43 1   
@<TRIPOS>SUBSTRUCTURE
     1 BLV         1 TEMP              0 ****  ****    0 ROOT
