@<TRIPOS>MOLECULE
molecule
   52    55     1     0     0
SMALL
bcc


@<TRIPOS>ATOM
      1 C1           0.0000     0.0000     0.0000 c3         1 BLZ       0.135700
      2 O2           1.4260     0.0000     0.0000 os         1 BLZ      -0.340900
      3 C3           2.0440     0.0000     1.2170 ca         1 BLZ       0.090100
      4 C4           2.3500    -1.2270     1.8190 ca         1 BLZ      -0.062000
      5 C5           2.9870    -1.2190     3.0710 ca         1 BLZ       0.073400
      6 N6           3.3910    -2.2680     3.8640 nc         1 BLZ      -0.504100
      7 C7           3.9290    -1.7070     4.9240 cd         1 BLZ       0.401700
      8 N8           3.8920    -0.3420     4.8540 na         1 BLZ      -0.067400
      9 C9           4.3800     0.5210     5.8130 cc         1 BLZ       0.119700
     10 C10          4.8950     1.7770     5.6530 cd         1 BLZ      -0.253000
     11 C11          5.2910     2.3410     6.9000 cd         1 BLZ       0.225100
     12 O12          5.8320     3.5620     7.0580 os         1 BLZ      -0.365900
     13 C13          6.6180     4.0860     5.9780 c3         1 BLZ       0.196400
     14 C14          7.7230     4.9580     6.5550 c3         1 BLZ      -0.091100
     15 C15          5.7030     4.8530     5.0530 ca         1 BLZ      -0.143300
     16 C16          4.6150     5.5060     5.6140 ca         1 BLZ      -0.104000
     17 C17          3.7480     6.2250     4.7910 ca         1 BLZ      -0.118000
     18 C18          3.9780     6.2820     3.4160 ca         1 BLZ      -0.094000
     19 C19          5.0740     5.6200     2.8640 ca         1 BLZ      -0.112000
     20 C20          5.9420     4.9010     3.6870 ca         1 BLZ       0.028400
     21 Cl2          7.2900     4.0970     2.9690 cl         1 BLZ      -0.082400
     22 C22          5.0560     1.4850     7.9540 cc         1 BLZ      -0.315700
     23 S23          4.3610     0.0070     7.4370 ss         1 BLZ       0.129200
     24 C24          5.3100     1.6760     9.3450 c          1 BLZ       0.559700
     25 O25          5.0580     0.7930    10.2050 o          1 BLZ      -0.468100
     26 N26          5.8800     2.8880     9.7660 nz         1 BLZ      -0.674400
     27 C27          3.2900     0.0000     3.6700 ca         1 BLZ      -0.078200
     28 C28          2.9940     1.2340     3.0890 ca         1 BLZ      -0.149000
     29 C29          2.3610     1.2070     1.8420 ca         1 BLZ       0.132100
     30 O30          2.0550     2.3910     1.2360 os         1 BLZ      -0.348900
     31 C31          3.0440     2.9510     0.3760 c3         1 BLZ       0.138700
     32 H11         -0.3610     0.7120    -0.7330 h1         1 BLZ       0.043033
     33 H12         -0.3610    -0.9900    -0.2500 h1         1 BLZ       0.043033
     34 H13A        -0.3610     0.2790     0.9830 h1         1 BLZ       0.043033
     35 H4           1.9050    -2.1400     1.4430 ha         1 BLZ       0.173000
     36 H7           4.3520    -2.2600     5.7550 h5         1 BLZ       0.081800
     37 H10          4.9920     2.2790     4.6980 ha         1 BLZ       0.201000
     38 H13          7.0640     3.2630     5.4330 h1         1 BLZ       0.078700
     39 H141         8.4490     4.3330     7.0610 hc         1 BLZ       0.060033
     40 H142         7.2980     5.6610     7.2610 hc         1 BLZ       0.060033
     41 H143         8.2100     5.5010     5.7540 hc         1 BLZ       0.060033
     42 H16          4.4410     5.4590     6.6820 ha         1 BLZ       0.134000
     43 H17          2.8950     6.7390     5.2190 ha         1 BLZ       0.149000
     44 H18          3.3050     6.8400     2.7770 ha         1 BLZ       0.156000
     45 H19          5.2530     5.6640     1.7970 ha         1 BLZ       0.160000
     46 H261         6.7870     2.9900     9.3570 hn         1 BLZ       0.473133
     47 H262         5.9620     2.8900    10.7640 hn         1 BLZ       0.473133
     48 H28          3.2430     2.1670     3.5800 ha         1 BLZ       0.150000
     49 H311         4.0270     2.6250     0.6960 h1         1 BLZ       0.042033
     50 H312         2.9900     4.0320     0.4180 h1         1 BLZ       0.042033
     51 H313         2.8680     2.6200    -0.6400 h1         1 BLZ       0.042033
     52 H263         5.2980     3.6490     9.4770 hn         1 BLZ       0.473133
@<TRIPOS>BOND
     1     1     2 1
     2     1    32 1
     3     1    33 1
     4     1    34 1
     5     2     3 1
     6     3     4 ar
     7     3    29 ar
     8     4     5 ar
     9     4    35 1
    10     5     6 1
    11     5    27 ar
    12     6     7 2
    13     7     8 1
    14     7    36 1
    15     8    27 1
    16     8     9 1
    17     9    23 1
    18     9    10 2
    19    10    11 1
    20    10    37 1
    21    11    22 2
    22    11    12 1
    23    12    13 1
    24    13    15 1
    25    13    14 1
    26    13    38 1
    27    14    39 1
    28    14    40 1
    29    14    41 1
    30    15    16 ar
    31    15    20 ar
    32    16    17 ar
    33    16    42 1
    34    17    18 ar
    35    17    43 1
    36    18    19 ar
    37    18    44 1
    38    19    20 ar
    39    19    45 1
    40    20    21 1
    41    22    23 1
    42    22    24 1
    43    24    25 2
    44    24    26 1
    45    26    46 1
    46    26    47 1
    47    27    28 ar
    48    28    29 ar
    49    28    48 1
    50    29    30 1
    51    30    31 1
    52    31    49 1
    53    31    50 1
    54    31    51 1
    55    52    26 1
@<TRIPOS>SUBSTRUCTURE
     1 BLZ         1 TEMP              0 ****  ****    0 ROOT
