@<TRIPOS>MOLECULE
molecule
   25    25     1     0     0
SMALL
bcc


@<TRIPOS>ATOM
      1 C1           0.0000     0.0000     0.0000 c3         1 BM0      -0.081400
      2 C2           1.5300     0.0000     0.0000 c3         1 BM0      -0.106400
      3 C3           2.0390     0.0000     1.4430 c3         1 BM0       0.026300
      4 C4           4.3170    -1.1010     1.4500 cc         1 BM0      -0.117300
      5 C5           5.5860    -0.6490     1.4470 cd         1 BM0      -0.150300
      6 C6           4.3060     1.0880     1.4430 cc         1 BM0      -0.053600
      7 N1           5.5490     0.6920     1.4430 na         1 BM0       0.025900
      8 N            3.5050     0.0010     1.4420 na         1 BM0      -0.006100
      9 C           -0.5100     0.0000    -1.4420 c3         1 BM0      -0.090100
     10 H4          -0.3610     0.8840     0.5110 hc         1 BM0       0.052200
     11 H3          -0.3610    -0.8850     0.5110 hc         1 BM0       0.052200
     12 H5           1.8910    -0.8850    -0.5110 hc         1 BM0       0.061200
     13 H6           1.8910     0.8850    -0.5110 hc         1 BM0       0.061200
     14 H8           1.6790    -0.8850     1.9530 h1         1 BM0       0.094200
     15 H7           1.6770     0.8840     1.9540 h1         1 BM0       0.094200
     16 H9           4.0010    -2.1370     1.4540 h4         1 BM0       0.230000
     17 H10          6.4800    -1.2610     1.4500 h4         1 BM0       0.228000
     18 H11          3.9710     2.1190     1.4400 h5         1 BM0       0.249000
     19 H13          7.6170     0.9810     1.5690 h1         1 BM0       0.093033
     20 H14          6.6370     2.2830     2.2570 h1         1 BM0       0.093033
     21 H12          6.7690     2.1080     0.5020 h1         1 BM0       0.093033
     22 H           -0.1180    -0.8640    -1.9640 hc         1 BM0       0.047700
     23 H2          -1.5930    -0.0390    -1.4420 hc         1 BM0       0.047700
     24 H1          -0.1820     0.9040    -1.9420 hc         1 BM0       0.047700
     25 C7           6.7190     1.5730     1.4430 c3         1 BM0       0.010600
@<TRIPOS>BOND
     1     6     8 1
     2     6     7 2
     3     3     2 1
     4     3     8 1
     5     2     1 1
     6     8     4 1
     7    25     7 1
     8     7     5 1
     9     1     9 1
    10     4     5 2
    11     1    10 1
    12     1    11 1
    13     2    12 1
    14     2    13 1
    15     3    14 1
    16     3    15 1
    17     4    16 1
    18     5    17 1
    19     6    18 1
    20    25    19 1
    21    25    20 1
    22    25    21 1
    23     9    22 1
    24     9    23 1
    25     9    24 1
@<TRIPOS>SUBSTRUCTURE
     1 BM0         1 TEMP              0 ****  ****    0 ROOT
