@<TRIPOS>MOLECULE
BM0
   25    25     1     0     0
SMALL
bcc


@<TRIPOS>ATOM
      1 C1          0.0000   -0.0020   -0.0510 c3        1 BM0     -0.080400
      2 C2          1.5160   -0.0000   -0.0830 c3        1 BM0     -0.102400
      3 C3          2.0490    0.0060    1.3500 c3        1 BM0      0.013300
      4 C4          4.3120   -1.1290    1.5920 cc        1 BM0     -0.115300
      5 C5          5.6410   -0.6860    1.6180 cd        1 BM0     -0.121300
      6 C6          4.3070    1.1140    1.3750 cc        1 BM0     -0.035600
      7 N1          5.6190    0.7110    1.4810 na        1 BM0     -0.017100
      8 N           3.4960    0.0050    1.4480 na        1 BM0     -0.015100
      9 C          -0.5650   -0.0060   -1.4480 c3        1 BM0     -0.098100
     10 H4         -0.3650   -0.9050    0.5060 hc        1 BM0      0.051700
     11 H3         -0.3680    0.9030    0.5020 hc        1 BM0      0.051700
     12 H5          1.8820   -0.9070   -0.6320 hc        1 BM0      0.063200
     13 H6          1.8810    0.9030   -0.6380 hc        1 BM0      0.063200
     14 H8          1.6680    0.9210    1.8910 h1        1 BM0      0.095200
     15 H7          1.6780   -0.9110    1.8940 h1        1 BM0      0.095200
     16 H9          3.9040   -2.1420    1.6710 h4        1 BM0      0.233000
     17 H10         6.5730   -1.2520    1.7210 h4        1 BM0      0.233000
     18 H11         3.9620    2.1550    1.2590 h5        1 BM0      0.256000
     19 H13         6.4630    2.6230    1.2390 h1        1 BM0      0.096033
     20 H14         7.4940    1.2090    0.6870 h1        1 BM0      0.096033
     21 H12         7.2690    1.5370    2.4800 h1        1 BM0      0.096033
     22 H          -1.6820   -0.0080   -1.4070 hc        1 BM0      0.049033
     23 H2         -0.2360    0.8990   -2.0130 hc        1 BM0      0.049033
     24 H1         -0.2320   -0.9130   -2.0090 hc        1 BM0      0.049033
     25 C7          6.7720    1.5690    1.4710 c3        1 BM0     -0.005400
@<TRIPOS>BOND
     1    1    2 1   
     2    1    9 1   
     3    1   10 1   
     4    1   11 1   
     5    2    3 1   
     6    2   12 1   
     7    2   13 1   
     8    3    8 1   
     9    3   14 1   
    10    3   15 1   
    11    4    5 2   
    12    4    8 1   
    13    4   16 1   
    14    5    7 1   
    15    5   17 1   
    16    6    7 2   
    17    6    8 1   
    18    6   18 1   
    19    7   25 1   
    20    9   22 1   
    21    9   23 1   
    22    9   24 1   
    23   19   25 1   
    24   20   25 1   
    25   21   25 1   
@<TRIPOS>SUBSTRUCTURE
     1 BM0         1 TEMP              0 ****  ****    0 ROOT
