@<TRIPOS>MOLECULE
BM1
   35    38     1     0     0
SMALL
bcc


@<TRIPOS>ATOM
      1 S1           0.0000     0.0000     0.0000 ss         1 BM1      -0.413200
      2 C2           1.8440     0.0000     0.0000 c3         1 BM1       0.100700
      3 C3           2.1390     0.0000     1.5250 c3         1 BM1       0.087000
      4 C5          -0.2600     0.0770     1.8200 c3         1 BM1       0.235100
      5 N4           1.0440     0.6640     2.2460 n          1 BM1      -0.188800
      6 C6           0.7520     1.6250     3.1430 c          1 BM1       0.701100
      7 OE           1.5290     2.0750     3.9630 o          1 BM1      -0.648500
      8 C7          -0.6510     2.0490     2.9780 ca         1 BM1      -0.173600
      9 C12         -1.3050     1.1040     2.1530 ca         1 BM1      -0.058300
     10 C8          -1.3780     3.1240     3.4880 ca         1 BM1      -0.015000
     11 C9          -2.7080     3.2770     3.1550 ca         1 BM1      -0.112000
     12 C10         -3.3260     2.3610     2.3230 ca         1 BM1      -0.071000
     13 C11         -2.6170     1.2810     1.8250 ca         1 BM1      -0.064000
     14 C13         -0.5400    -1.2680     2.4340 ca         1 BM1      -0.099300
     15 C14         -1.1930    -2.2410     1.7020 ca         1 BM1      -0.084000
     16 C15         -1.4550    -3.4740     2.2690 ca         1 BM1      -0.089300
     17 CA          -2.1720    -4.5330     1.4720 c3         1 BM1       0.064200
     18 C16         -1.0550    -3.7380     3.5650 ca         1 BM1      -0.093000
     19 C17         -0.3980    -2.7660     4.2960 ca         1 BM1      -0.095000
     20 C18         -0.1400    -1.5310     3.7300 ca         1 BM1      -0.095000
     21 H21          2.2320    -0.8960    -0.4700 h1         1 BM1       0.054700
     22 H22          2.2320     0.8960    -0.4700 h1         1 BM1       0.054700
     23 H31          2.2280    -1.0220     1.8730 h1         1 BM1       0.036200
     24 H32          3.0640     0.5310     1.7110 h1         1 BM1       0.036200
     25 H81         -0.8960     3.8430     4.1400 ha         1 BM1       0.115000
     26 H91         -3.2670     4.1200     3.5410 ha         1 BM1       0.109000
     27 H101        -4.3710     2.4860     2.0640 ha         1 BM1       0.106000
     28 H111        -3.1090     0.5690     1.1740 ha         1 BM1       0.112000
     29 H141        -1.4950    -2.0400     0.6810 ha         1 BM1       0.133000
     30 HA1         -3.2420    -4.3930     1.5660 hc         1 BM1       0.009033
     31 HA2         -1.9010    -5.5120     1.8470 hc         1 BM1       0.009033
     32 HA3         -1.8880    -4.4540     0.4290 hc         1 BM1       0.009033
     33 H161        -1.2590    -4.7050     4.0090 ha         1 BM1       0.107000
     34 H171        -0.0850    -2.9730     5.3130 ha         1 BM1       0.106000
     35 H181         0.3750    -0.7690     4.3040 ha         1 BM1       0.116000
@<TRIPOS>BOND
     1     1     2 1   
     2     1     4 1   
     3     2     3 1   
     4     2    21 1   
     5     2    22 1   
     6     3     5 1   
     7     3    23 1   
     8     3    24 1   
     9     4     5 1   
    10     4     9 1   
    11     4    14 1   
    12     5     6 1   
    13     6     7 2   
    14     6     8 1   
    15     8     9 ar  
    16     8    10 ar  
    17     9    13 ar  
    18    10    11 ar  
    19    10    25 1   
    20    11    12 ar  
    21    11    26 1   
    22    12    13 ar  
    23    12    27 1   
    24    13    28 1   
    25    14    15 ar  
    26    14    20 ar  
    27    15    16 ar  
    28    15    29 1   
    29    16    17 1   
    30    16    18 ar  
    31    17    30 1   
    32    17    31 1   
    33    17    32 1   
    34    18    19 ar  
    35    18    33 1   
    36    19    20 ar  
    37    19    34 1   
    38    20    35 1   
@<TRIPOS>SUBSTRUCTURE
     1 BM1         1 TEMP              0 ****  ****    0 ROOT
