@<TRIPOS>MOLECULE
molecule
   30    30     1     0     0
SMALL
bcc


@<TRIPOS>ATOM
      1 C1           0.0000     0.0000     0.0000 c3         1 BM3       0.319900
      2 O1          -0.4750    -1.2700     0.4380 oh         1 BM3      -0.621800
      3 C2           1.5310     0.0000     0.0000 c3         1 BM3       0.067700
      4 N2           2.0270     1.1330    -0.7540 ns         1 BM3      -0.576900
      5 C7           2.2630     1.0870    -2.1140 c          1 BM3       0.673100
      6 O7           2.0980     0.1230    -2.8510 o          1 BM3      -0.599100
      7 C8           2.7700     2.3710    -2.6840 c3         1 BM3      -0.185100
      8 C3           2.0740     0.0000     1.4330 c3         1 BM3       0.125100
      9 O3           3.4920     0.1410     1.4100 oh         1 BM3      -0.603800
     10 C4           1.4380     1.1120     2.2690 c3         1 BM3       0.118100
     11 O4           1.8450     0.9330     3.6240 oh         1 BM3      -0.597800
     12 C5          -0.0910     1.0470     2.1610 c3         1 BM3       0.138100
     13 C6          -0.7640     2.2260     2.8590 c3         1 BM3       0.153400
     14 O6          -2.1660     2.1000     2.7050 oh         1 BM3      -0.590800
     15 O5          -0.5110     1.0760     0.7940 os         1 BM3      -0.398600
     16 H1          -0.3330     0.1530    -1.0200 h2         1 BM3       0.078700
     17 HA          -1.0380    -1.6400    -0.2220 ho         1 BM3       0.421000
     18 H2           1.8670    -0.9080    -0.4860 h1         1 BM3       0.089700
     19 HB           2.2080     1.9890    -0.2670 hn         1 BM3       0.323500
     20 H3           1.8270    -0.9510     1.8890 h1         1 BM3       0.070700
     21 H8C1         2.9890     2.2370    -3.7360 hc         1 BM3       0.063367
     22 H8C2         2.0170     3.1400    -2.5670 hc         1 BM3       0.063367
     23 H8C3         3.6720     2.6660    -2.1620 hc         1 BM3       0.063367
     24 HC           3.8930    -0.6900     1.6050 ho         1 BM3       0.414000
     25 H4           1.7830     2.0730     1.9080 h1         1 BM3       0.042700
     26 HD           2.4300     1.6300     3.8710 ho         1 BM3       0.411000
     27 H5          -0.4340     0.1240     2.6120 h1         1 BM3       0.078700
     28 H6C1        -0.4300     3.1540     2.4110 h1         1 BM3       0.028700
     29 H6C2        -0.5100     2.2180     3.9120 h1         1 BM3       0.028700
     30 H6          -2.5990     2.7520     3.2300 ho         1 BM3       0.402000
@<TRIPOS>BOND
     1     1     2 1
     2     1     3 1
     3     1    15 1
     4     1    16 1
     5     2    17 1
     6     3     4 1
     7     3     8 1
     8     3    18 1
     9     4     5 1
    10     4    19 1
    11     5     6 2
    12     5     7 1
    13     7    21 1
    14     7    22 1
    15     7    23 1
    16     8     9 1
    17     8    10 1
    18     8    20 1
    19     9    24 1
    20    10    11 1
    21    10    12 1
    22    10    25 1
    23    11    26 1
    24    12    13 1
    25    12    15 1
    26    12    27 1
    27    13    14 1
    28    13    28 1
    29    13    29 1
    30    14    30 1
@<TRIPOS>SUBSTRUCTURE
     1 BM3         1 TEMP              0 ****  ****    0 ROOT
