@<TRIPOS>MOLECULE
BM4
   99   102     1     0     0
SMALL
bcc


@<TRIPOS>ATOM
      1 OAU          0.0000     0.0000     0.0000 oh         1 BM4      -0.488600
      2 CAS          1.3590     0.0000     0.0000 ca         1 BM4       0.146100
      3 CAQ          2.0540     0.0000     1.2000 ca         1 BM4      -0.146500
      4 CAT          2.0530    -0.0060    -1.2010 ca         1 BM4      -0.188500
      5 CAR          3.4350    -0.0050    -1.2000 ca         1 BM4      -0.061000
      6 CAP          4.1250    -0.0000    -0.0010 ca         1 BM4      -0.144500
      7 CAO          3.4350     0.0000     1.1970 ca         1 BM4      -0.040300
      8 CAC          4.1910     0.0010     2.5000 c3         1 BM4       0.003800
      9 CAM          5.0470     1.2670     2.5720 c3         1 BM4      -0.092900
     10 CAN          4.1390     2.4880     2.7390 c3         1 BM4      -0.012100
     11 CAB          3.1790     0.0200     3.6600 c3         1 BM4       0.129300
     12 CAD          5.0990    -1.2000     2.5360 c3         1 BM4      -0.023400
     13 CAE          6.3740    -0.8380     3.3290 c3         1 BM4      -0.056400
     14 CAF          6.1330    -0.8430     4.7680 c3         1 BM4      -0.026400
     15 CAG          5.0770     0.1940     5.1950 c3         1 BM4       0.088300
     16 NAA          3.7690    -0.3710     4.9590 n3         1 BM4      -0.529600
     17 CAH          2.8550    -0.0630     6.0670 c3         1 BM4       0.152800
     18 CAI          3.3810    -0.7000     7.3550 c3         1 BM4      -0.039900
     19 CAJ          2.4290    -0.3790     8.5090 c3         1 BM4      -0.027900
     20 CAK          2.9560    -1.0160     9.7960 c3         1 BM4      -0.028400
     21 CAL          2.0040    -0.6950    10.9500 c3         1 BM4      -0.029400
     22 CAV          2.5290    -1.3330    12.2370 c3         1 BM4      -0.028400
     23 CAW          1.5780    -1.0110    13.3920 c3         1 BM4      -0.027900
     24 CAX          2.1030    -1.6490    14.6800 c3         1 BM4      -0.039900
     25 CAY          1.1510    -1.3280    15.8330 c3         1 BM4       0.152800
     26 NAZ          1.6570    -1.9390    17.0690 n3         1 BM4      -0.529600
     27 HOAU        -0.3140     0.5110    -0.7270 ho         1 BM4       0.402000
     28 HAQ          1.5140     0.0000     2.1400 ha         1 BM4       0.130500
     29 HAT          1.5120    -0.0100    -2.1400 ha         1 BM4       0.109500
     30 HAR          3.9770    -0.0080    -2.1370 ha         1 BM4       0.101000
     31 HAP          5.2080    -0.0000    -0.0020 ha         1 BM4       0.118500
     32 HAM          5.6210     1.3670     1.6590 hc         1 BM4       0.051200
     33 HAMA         5.7210     1.2000     3.4180 hc         1 BM4       0.051200
     34 HAN          4.5790     3.3370     2.2300 hc         1 BM4       0.007867
     35 HANA         3.1660     2.2750     2.3130 hc         1 BM4       0.007867
     36 HANB         4.0300     2.7160     3.7920 hc         1 BM4       0.007867
     37 HAB          2.3730    -0.6650     3.4270 h1         1 BM4       0.026200
     38 HABA         2.7760     1.0210     3.7510 h1         1 BM4       0.026200
     39 HAD          4.5910    -2.0230     3.0230 hc         1 BM4       0.031700
     40 HADA         5.3690    -1.4790     1.5250 hc         1 BM4       0.031700
     41 HAE          7.1480    -1.5620     3.1000 hc         1 BM4       0.024450
     42 HAEA         6.7070     0.1490     3.0310 hc         1 BM4       0.024450
     43 HAF          7.0630    -0.6230     5.2780 hc         1 BM4       0.018700
     44 HAFA         5.7920    -1.8280     5.0610 hc         1 BM4       0.018700
     45 HAG          5.1920     0.4180     6.2480 h1         1 BM4       0.037450
     46 HAGA         5.1950     1.0970     4.6080 h1         1 BM4       0.037450
     47 HAH          2.7920     1.0110     6.1950 h1         1 BM4       0.006950
     48 HAHA         1.8710    -0.4580     5.8440 h1         1 BM4       0.006950
     49 HAI          3.4440    -1.7740     7.2270 hc         1 BM4       0.025450
     50 HAIA         4.3650    -0.3050     7.5770 hc         1 BM4       0.025450
     51 HAJ          1.4450    -0.7730     8.2870 hc         1 BM4       0.013450
     52 HAJA         2.3670     0.6950     8.6370 hc         1 BM4       0.013450
     53 HAK          3.9390    -0.6210    10.0190 hc         1 BM4       0.015200
     54 HAKA         3.0190    -2.0900     9.6680 hc         1 BM4       0.015200
     55 HAL          1.9410     0.3790    11.0790 hc         1 BM4       0.014700
     56 HALA         1.0200    -1.0900    10.7270 hc         1 BM4       0.014700
     57 HAV          3.5130    -0.9390    12.4600 hc         1 BM4       0.015200
     58 HAVA         2.5910    -2.4070    12.1090 hc         1 BM4       0.015200
     59 HAW          0.5940    -1.4050    13.1690 hc         1 BM4       0.013450
     60 HAWA         1.5160     0.0630    13.5200 hc         1 BM4       0.013450
     61 HAX          3.0870    -1.2540    14.9030 hc         1 BM4       0.025450
     62 HAXA         2.1660    -2.7230    14.5510 hc         1 BM4       0.025450
     63 HAY          1.0880    -0.2540    15.9610 h1         1 BM4       0.006950
     64 HAYA         0.1680    -1.7230    15.6100 h1         1 BM4       0.006950
     65 C24          2.9030    -1.3350    17.4740 c3         1 BM4       0.088300
     66 C25          3.5790    -2.8540    19.3360 c3         1 BM4      -0.056400
     67 C26          0.6220    -1.9300    18.1270 c3         1 BM4       0.129300
     68 C27          1.1720    -2.2800    19.5210 c3         1 BM4       0.003800
     69 C28          2.1510    -3.4230    19.4950 c3         1 BM4      -0.023400
     70 C29         -1.2740    -2.6180    19.9310 ca         1 BM4      -0.144500
     71 C30          0.0190    -2.6480    20.4190 ca         1 BM4      -0.040300
     72 C31          0.2560    -3.0170    21.7300 ca         1 BM4      -0.146500
     73 C32         -0.8060    -3.3560    22.5560 ca         1 BM4       0.146100
     74 C33         -2.1030    -3.3240    22.0640 ca         1 BM4      -0.188500
     75 C34         -2.3340    -2.9540    20.7530 ca         1 BM4      -0.061000
     76 C35          1.8680    -1.0460    20.0990 c3         1 BM4      -0.092900
     77 O2          -0.5760    -3.7190    23.8450 oh         1 BM4      -0.488600
     78 C36          0.9570     0.1730    19.9450 c3         1 BM4      -0.012100
     79 C37          3.8470    -2.4510    17.9600 c3         1 BM4      -0.026400
     80 H39          3.3490    -0.8220    16.6310 h1         1 BM4       0.037450
     81 H40          2.7220    -0.6340    18.2810 h1         1 BM4       0.037450
     82 H41          3.6890    -1.9920    19.9830 hc         1 BM4       0.024450
     83 H42          4.2950    -3.6140    19.6260 hc         1 BM4       0.024450
     84 H43          0.1780    -0.9430    18.1680 h1         1 BM4       0.026200
     85 H44         -0.1440    -2.6510    17.8670 h1         1 BM4       0.026200
     86 H45          2.0840    -3.9780    20.4230 hc         1 BM4       0.031700
     87 H46          1.9250    -4.0740    18.6590 hc         1 BM4       0.031700
     88 H47         -1.4570    -2.3280    18.9030 ha         1 BM4       0.118500
     89 H48          1.2700    -3.0410    22.1110 ha         1 BM4       0.130500
     90 H49         -2.9340    -3.5880    22.7070 ha         1 BM4       0.109500
     91 H50         -3.3460    -2.9290    20.3680 ha         1 BM4       0.101000
     92 H51          2.0790    -1.2090    21.1490 hc         1 BM4       0.051200
     93 H52          2.7960    -0.8730    19.5680 hc         1 BM4       0.051200
     94 H53         -1.1170    -3.2020    24.4190 ho         1 BM4       0.402000
     95 H54          1.1900     0.6820    19.0180 hc         1 BM4       0.007867
     96 H55          1.1140     0.8480    20.7770 hc         1 BM4       0.007867
     97 H56         -0.0770    -0.1490    19.9310 hc         1 BM4       0.007867
     98 H57          3.7280    -3.3130    17.3150 hc         1 BM4       0.018700
     99 H58          4.8680    -2.0960    17.8930 hc         1 BM4       0.018700
@<TRIPOS>BOND
     1     1     2 1   
     2     1    27 1   
     3     2     3 ar  
     4     2     4 ar  
     5     3     7 ar  
     6     3    28 1   
     7     4     5 ar  
     8     4    29 1   
     9     5     6 ar  
    10     5    30 1   
    11     6     7 ar  
    12     6    31 1   
    13     7     8 1   
    14     8     9 1   
    15     8    11 1   
    16     8    12 1   
    17     9    10 1   
    18     9    32 1   
    19     9    33 1   
    20    10    34 1   
    21    10    35 1   
    22    10    36 1   
    23    11    16 1   
    24    11    37 1   
    25    11    38 1   
    26    12    13 1   
    27    12    39 1   
    28    12    40 1   
    29    13    14 1   
    30    13    41 1   
    31    13    42 1   
    32    14    15 1   
    33    14    43 1   
    34    14    44 1   
    35    15    16 1   
    36    15    45 1   
    37    15    46 1   
    38    16    17 1   
    39    17    18 1   
    40    17    47 1   
    41    17    48 1   
    42    18    19 1   
    43    18    49 1   
    44    18    50 1   
    45    19    20 1   
    46    19    51 1   
    47    19    52 1   
    48    20    21 1   
    49    20    53 1   
    50    20    54 1   
    51    21    22 1   
    52    21    55 1   
    53    21    56 1   
    54    22    23 1   
    55    22    57 1   
    56    22    58 1   
    57    23    24 1   
    58    23    59 1   
    59    23    60 1   
    60    24    25 1   
    61    24    61 1   
    62    24    62 1   
    63    25    26 1   
    64    25    63 1   
    65    25    64 1   
    66    26    65 1   
    67    26    67 1   
    68    65    79 1   
    69    65    80 1   
    70    65    81 1   
    71    66    69 1   
    72    66    79 1   
    73    66    82 1   
    74    66    83 1   
    75    67    68 1   
    76    67    84 1   
    77    67    85 1   
    78    68    69 1   
    79    68    71 1   
    80    68    76 1   
    81    69    86 1   
    82    69    87 1   
    83    70    71 ar  
    84    70    75 ar  
    85    70    88 1   
    86    71    72 ar  
    87    72    73 ar  
    88    72    89 1   
    89    73    74 ar  
    90    73    77 1   
    91    74    75 ar  
    92    74    90 1   
    93    75    91 1   
    94    76    78 1   
    95    76    92 1   
    96    76    93 1   
    97    77    94 1   
    98    78    95 1   
    99    78    96 1   
   100    78    97 1   
   101    79    98 1   
   102    79    99 1   
@<TRIPOS>SUBSTRUCTURE
     1 BM4         1 TEMP              0 ****  ****    0 ROOT
