@<TRIPOS>MOLECULE
molecule
   38    41     1     0     0
SMALL
bcc


@<TRIPOS>ATOM
      1 S1           0.0000     0.0000     0.0000 ss         1 BM5      -0.351200
      2 C2           1.8430     0.0000     0.0000 c3         1 BM5       0.028700
      3 C3           2.1400     0.0000     1.5260 c3         1 BM5       0.102700
      4 C5          -0.2560     0.0750     1.8200 c3         1 BM5       0.297100
      5 N4           1.0420     0.6720     2.2390 n          1 BM5      -0.498800
      6 C6           0.7570     1.6780     3.0830 c          1 BM5       0.743100
      7 OE           1.5560     2.2080     3.8300 o          1 BM5      -0.562500
      8 C7          -0.6670     2.0460     2.9690 ca         1 BM5      -0.147600
      9 C12         -1.3030     1.0890     2.1720 ca         1 BM5      -0.058300
     10 C8          -1.4120     3.0990     3.5000 ca         1 BM5      -0.057000
     11 C9          -2.7560     3.2080     3.2070 ca         1 BM5      -0.133000
     12 C10         -3.3710     2.2710     2.3960 ca         1 BM5      -0.103000
     13 C11         -2.6430     1.2110     1.8820 ca         1 BM5      -0.098000
     14 C13         -0.5110    -1.2790     2.4300 ca         1 BM5      -0.099300
     15 C14         -1.1510    -2.2590     1.6970 ca         1 BM5      -0.104000
     16 C15         -1.3850    -3.5010     2.2590 ca         1 BM5      -0.131000
     17 C16         -0.9780    -3.7620     3.5530 ca         1 BM5      -0.118000
     18 C17         -0.3350    -2.7810     4.2860 ca         1 BM5      -0.131000
     19 C18         -0.0980    -1.5410     3.7240 ca         1 BM5      -0.104000
     20 CA           3.4310     0.7330     1.7860 c          1 BM5       0.614100
     21 OB           3.4350     1.7200     2.4820 o          1 BM5      -0.487000
     22 OC           4.5760     0.2880     1.2450 os         1 BM5      -0.445900
     23 CD           5.8200     0.9950     1.4960 c3         1 BM5       0.149700
     24 H21          2.2310     0.8960    -0.4700 h1         1 BM5       0.090700
     25 H22          2.2310    -0.8960    -0.4700 h1         1 BM5       0.090700
     26 H3           2.2230    -1.0220     1.8760 h1         1 BM5       0.095700
     27 H81         -0.9340     3.8350     4.1350 ha         1 BM5       0.150000
     28 H91         -3.3290     4.0350     3.6060 ha         1 BM5       0.139000
     29 H101        -4.4260     2.3620     2.1700 ha         1 BM5       0.138000
     30 H111        -3.1280     0.4790     1.2480 ha         1 BM5       0.140000
     31 H141        -1.4710    -2.0550     0.6830 ha         1 BM5       0.146500
     32 H151        -1.8870    -4.2690     1.6840 ha         1 BM5       0.134500
     33 H161        -1.1620    -4.7350     3.9930 ha         1 BM5       0.132000
     34 H171        -0.0140    -2.9860     5.3000 ha         1 BM5       0.134500
     35 H181         0.4050    -0.7730     4.2980 ha         1 BM5       0.146500
     36 HD1          6.6300     0.4940     0.9790 h1         1 BM5       0.051033
     37 HD2          5.7360     2.0130     1.1360 h1         1 BM5       0.051033
     38 HD3          6.0220     1.0040     2.5610 h1         1 BM5       0.051033
@<TRIPOS>BOND
     1     1     2 1
     2     1     4 1
     3     2     3 1
     4     2    24 1
     5     2    25 1
     6     3     5 1
     7     3    20 1
     8     3    26 1
     9     4     5 1
    10     4     9 1
    11     4    14 1
    12     5     6 1
    13     6     7 2
    14     6     8 1
    15     8     9 ar
    16     8    10 ar
    17     9    13 ar
    18    10    11 ar
    19    10    27 1
    20    11    12 ar
    21    11    28 1
    22    12    13 ar
    23    12    29 1
    24    13    30 1
    25    14    15 ar
    26    14    19 ar
    27    15    16 ar
    28    15    31 1
    29    16    17 ar
    30    16    32 1
    31    17    18 ar
    32    17    33 1
    33    18    19 ar
    34    18    34 1
    35    19    35 1
    36    20    21 2
    37    20    22 1
    38    22    23 1
    39    23    36 1
    40    23    37 1
    41    23    38 1
@<TRIPOS>SUBSTRUCTURE
     1 BM5         1 TEMP              0 ****  ****    0 ROOT
