@<TRIPOS>MOLECULE
BM6
   55    58     1     0     0
SMALL
bcc


@<TRIPOS>ATOM
      1 O1         -0.2070    0.2460    0.1980 o         1 BM6     -0.829800
      2 O2          1.6670    0.1930   -1.0160 o         1 BM6     -0.829800
      3 O3          5.4780    0.6470    4.8270 os        1 BM6     -0.436600
      4 O4          3.5760    0.6910    6.0570 os        1 BM6     -0.436600
      5 C1          1.0510    0.1920    0.0860 c         1 BM6      0.906200
      6 C2          1.8760    0.1270    1.3640 ca        1 BM6     -0.109600
      7 C3          1.2490    0.1330    2.6140 ca        1 BM6     -0.117500
      8 C4          2.0010    0.0850    3.7850 ca        1 BM6     -0.130000
      9 C5          3.3970    0.0310    3.7180 ca        1 BM6     -0.163300
     10 C6          4.0310    0.0170    2.4710 ca        1 BM6     -0.130000
     11 C7          3.2720    0.0650    1.3030 ca        1 BM6     -0.117500
     12 C8          4.2140   -0.0280    4.9820 c3        1 BM6      0.451200
     13 C9          4.4680   -1.4460    5.4300 ca        1 BM6     -0.068300
     14 C10         5.6240   -2.1200    5.0250 ca        1 BM6     -0.098000
     15 C11         5.8320   -3.4310    5.4350 ca        1 BM6     -0.141000
     16 C12         4.9040   -4.1000    6.2490 ca        1 BM6     -0.063300
     17 C13         3.7260   -3.4350    6.6270 ca        1 BM6     -0.070300
     18 C14         3.5310   -2.1050    6.2250 ca        1 BM6     -0.095000
     19 C15         2.6500   -4.0860    7.4550 c3        1 BM6     -0.001700
     20 C16         2.8480   -5.6000    7.5320 c3        1 BM6     -0.069400
     21 C17         4.2850   -5.9790    7.7860 c3        1 BM6     -0.067400
     22 C18         5.2140   -5.5130    6.6650 c3        1 BM6     -0.002700
     23 C19         5.3570    1.9990    5.2720 c3        1 BM6      0.108400
     24 C20         4.0740    2.0280    6.1020 c3        1 BM6      0.108400
     25 C21         1.2770   -3.8340    6.8320 c3        1 BM6     -0.085600
     26 C22         2.6650   -3.4880    8.8600 c3        1 BM6     -0.085600
     27 C23         6.6470   -5.6120    7.1880 c3        1 BM6     -0.083600
     28 C24         5.0710   -6.4350    5.4570 c3        1 BM6     -0.083600
     29 H3          0.1480    0.1790    2.6440 ha        1 BM6      0.152500
     30 H4          1.5080    0.0960    4.7680 ha        1 BM6      0.117500
     31 H6          5.1290   -0.0260    2.4230 ha        1 BM6      0.117500
     32 H7          3.7520    0.0570    0.3110 ha        1 BM6      0.152500
     33 H10         6.3580   -1.6060    4.3860 ha        1 BM6      0.146000
     34 H11         6.7420   -3.9540    5.1070 ha        1 BM6      0.123000
     35 H14         2.6240   -1.5600    6.5340 ha        1 BM6      0.147000
     36 H161        2.2020   -6.0110    8.3530 hc        1 BM6      0.040700
     37 H162        2.5020   -6.0630    6.5700 hc        1 BM6      0.040700
     38 H171        4.3660   -7.0930    7.8880 hc        1 BM6      0.036700
     39 H172        4.6260   -5.5280    8.7560 hc        1 BM6      0.036700
     40 H191        6.2760    2.2170    5.8700 h1        1 BM6      0.051700
     41 H192        5.3030    2.6670    4.3770 h1        1 BM6      0.051700
     42 H201        4.2500    2.2640    7.1800 h1        1 BM6      0.051700
     43 H202        3.3020    2.7130    5.6710 h1        1 BM6      0.051700
     44 H211        0.9700   -2.7690    6.9600 hc        1 BM6      0.036367
     45 H212        0.5130   -4.4810    7.3260 hc        1 BM6      0.036367
     46 H213        1.2980   -4.0690    5.7410 hc        1 BM6      0.036367
     47 H221        2.5320   -2.3810    8.8050 hc        1 BM6      0.036367
     48 H222        1.8340   -3.9200    9.4680 hc        1 BM6      0.036367
     49 H223        3.6340   -3.7040    9.3690 hc        1 BM6      0.036367
     50 H231        6.8400   -4.8120    7.9410 hc        1 BM6      0.034200
     51 H232        6.8060   -6.6070    7.6690 hc        1 BM6      0.034200
     52 H233        7.3830   -5.5050    6.3560 hc        1 BM6      0.034200
     53 H241        4.0220   -6.4230    5.0770 hc        1 BM6      0.034200
     54 H242        5.3420   -7.4810    5.7390 hc        1 BM6      0.034200
     55 H243        5.7480   -6.0980    4.6350 hc        1 BM6      0.034200
@<TRIPOS>BOND
     1    1    5 1   
     2    2    5 1   
     3    3   12 1   
     4    3   23 1   
     5    4   12 1   
     6    4   24 1   
     7    5    6 1   
     8    6    7 ar  
     9    6   11 ar  
    10    7    8 ar  
    11    7   29 1   
    12    8    9 ar  
    13    8   30 1   
    14    9   10 ar  
    15    9   12 1   
    16   10   11 ar  
    17   10   31 1   
    18   11   32 1   
    19   12   13 1   
    20   13   14 ar  
    21   13   18 ar  
    22   14   15 ar  
    23   14   33 1   
    24   15   16 ar  
    25   15   34 1   
    26   16   17 ar  
    27   16   22 1   
    28   17   18 ar  
    29   17   19 1   
    30   18   35 1   
    31   19   20 1   
    32   19   25 1   
    33   19   26 1   
    34   20   21 1   
    35   20   36 1   
    36   20   37 1   
    37   21   22 1   
    38   21   38 1   
    39   21   39 1   
    40   22   27 1   
    41   22   28 1   
    42   23   24 1   
    43   23   40 1   
    44   23   41 1   
    45   24   42 1   
    46   24   43 1   
    47   25   44 1   
    48   25   45 1   
    49   25   46 1   
    50   26   47 1   
    51   26   48 1   
    52   26   49 1   
    53   27   50 1   
    54   27   51 1   
    55   27   52 1   
    56   28   53 1   
    57   28   54 1   
    58   28   55 1   
@<TRIPOS>SUBSTRUCTURE
     1 BM6         1 TEMP              0 ****  ****    0 ROOT
