@<TRIPOS>MOLECULE
molecule
   55    58     1     0     0
SMALL
bcc


@<TRIPOS>ATOM
      1 O1           0.0000     0.0000     0.0000 o          1 BM6      -0.838300
      2 O2           1.9170     0.0000    -1.1050 o          1 BM6      -0.838300
      3 O3           5.4040     0.6800     4.8150 os         1 BM6      -0.417100
      4 O4           3.3830     0.6800     5.9830 os         1 BM6      -0.417100
      5 C1           1.2780     0.0000     0.0000 c          1 BM6       0.881200
      6 C2           2.0140     0.0000     1.2780 ca         1 BM6      -0.086600
      7 C3           1.3180    -0.0010     2.4900 ca         1 BM6      -0.110500
      8 C4           2.0140    -0.0020     3.6810 ca         1 BM6      -0.130500
      9 C5           3.3970    -0.0020     3.6780 ca         1 BM6      -0.150300
     10 C6           4.0940     0.0030     2.4820 ca         1 BM6      -0.130500
     11 C7           3.4120    -0.0000     1.2830 ca         1 BM6      -0.110500
     12 C8           4.1510    -0.0040     4.9830 c3         1 BM6       0.431200
     13 C9           4.4020    -1.4230     5.4220 ca         1 BM6      -0.076300
     14 C10          5.5570    -2.0750     5.0310 ca         1 BM6      -0.098000
     15 C11          5.7800    -3.3750     5.4330 ca         1 BM6      -0.139000
     16 C12          4.8520    -4.0360     6.2310 ca         1 BM6      -0.066300
     17 C13          3.7040    -3.3850     6.6220 ca         1 BM6      -0.073300
     18 C14          3.4810    -2.0770     6.2130 ca         1 BM6      -0.094000
     19 C15          2.6590    -4.0370     7.4900 c3         1 BM6      -0.014700
     20 C16          2.8290    -5.5550     7.4860 c3         1 BM6      -0.071400
     21 C17          4.2910    -5.8790     7.8130 c3         1 BM6      -0.071400
     22 C18          5.1550    -5.4570     6.6260 c3         1 BM6      -0.017700
     23 C19          5.1480     2.0370     5.2520 c3         1 BM6       0.098400
     24 C20          4.1640     1.8080     6.4270 c3         1 BM6       0.098400
     25 C21          1.2690    -3.6840     6.9570 c3         1 BM6      -0.081600
     26 C22          2.7980    -3.5170     8.9220 c3         1 BM6      -0.081600
     27 C23          6.6320    -5.5700     7.0110 c3         1 BM6      -0.080600
     28 C24          4.8700    -6.3830     5.4420 c3         1 BM6      -0.080600
     29 H3           0.2350    -0.0010     2.4940 ha         1 BM6       0.151000
     30 H4           1.4750    -0.0040     4.6210 ha         1 BM6       0.117000
     31 H6           5.1770     0.0030     2.4870 ha         1 BM6       0.117000
     32 H7           3.9580     0.0040     0.3470 ha         1 BM6       0.151000
     33 H10          6.3230    -1.5380     4.4850 ha         1 BM6       0.143000
     34 H11          6.6850    -3.8850     5.1260 ha         1 BM6       0.125000
     35 H14          2.5780    -1.5640     6.5230 ha         1 BM6       0.147000
     36 H161         2.5800    -5.9470     6.5080 hc         1 BM6       0.043700
     37 H162         2.1830    -5.9950     8.2370 hc         1 BM6       0.043700
     38 H171         4.5910    -5.3120     8.6870 hc         1 BM6       0.041700
     39 H172         4.3920    -6.9480     7.9600 hc         1 BM6       0.041700
     40 H191         6.0590     2.5080     5.5990 h1         1 BM6       0.054950
     41 H192         4.6800     2.6130     4.4640 h1         1 BM6       0.054950
     42 H201         4.7030     1.5650     7.3340 h1         1 BM6       0.054950
     43 H202         3.5320     2.6770     6.5690 h1         1 BM6       0.054950
     44 H211         1.2410    -3.8430     5.8860 hc         1 BM6       0.036200
     45 H212         0.5290    -4.3130     7.4350 hc         1 BM6       0.036200
     46 H213         1.0530    -2.6440     7.1730 hc         1 BM6       0.036200
     47 H221         2.4580    -4.2760     9.6160 hc         1 BM6       0.036200
     48 H222         2.1970    -2.6230     9.0410 hc         1 BM6       0.036200
     49 H223         3.8360    -3.2830     9.1220 hc         1 BM6       0.036200
     50 H231         6.9000    -4.7450     7.6590 hc         1 BM6       0.034700
     51 H232         7.2420    -5.5400     6.1170 hc         1 BM6       0.034700
     52 H233         6.7990    -6.5060     7.5310 hc         1 BM6       0.034700
     53 H241         4.6790    -7.3850     5.8050 hc         1 BM6       0.034700
     54 H242         5.7280    -6.3960     4.7800 hc         1 BM6       0.034700
     55 H243         4.0030    -6.0220     4.9020 hc         1 BM6       0.034700
@<TRIPOS>BOND
     1     1     5 1
     2     2     5 1
     3     3    12 1
     4     3    23 1
     5     4    12 1
     6     4    24 1
     7     5     6 1
     8     6     7 ar
     9     6    11 ar
    10     7     8 ar
    11     7    29 1
    12     8     9 ar
    13     8    30 1
    14     9    10 ar
    15     9    12 1
    16    10    11 ar
    17    10    31 1
    18    11    32 1
    19    12    13 1
    20    13    14 ar
    21    13    18 ar
    22    14    15 ar
    23    14    33 1
    24    15    16 ar
    25    15    34 1
    26    16    17 ar
    27    16    22 1
    28    17    18 ar
    29    17    19 1
    30    18    35 1
    31    19    20 1
    32    19    25 1
    33    19    26 1
    34    20    21 1
    35    20    36 1
    36    20    37 1
    37    21    22 1
    38    21    38 1
    39    21    39 1
    40    22    27 1
    41    22    28 1
    42    23    24 1
    43    23    40 1
    44    23    41 1
    45    24    42 1
    46    24    43 1
    47    25    44 1
    48    25    45 1
    49    25    46 1
    50    26    47 1
    51    26    48 1
    52    26    49 1
    53    27    50 1
    54    27    51 1
    55    27    52 1
    56    28    53 1
    57    28    54 1
    58    28    55 1
@<TRIPOS>SUBSTRUCTURE
     1 BM6         1 TEMP              0 ****  ****    0 ROOT
