@<TRIPOS>MOLECULE
BMB
   92    96     1     0     0
SMALL
bcc


@<TRIPOS>ATOM
      1 C            0.0000     0.0000     0.0000 c          1 BMB       0.545100
      2 N            1.9970     1.1990    -0.6930 n7         1 BMB      -0.581200
      3 O           -0.6060     1.0490    -0.0670 o          1 BMB      -0.617100
      4 CA           1.5070     0.0000     0.0000 c3         1 BMB       0.048500
      5 CB           2.0170     0.0000     1.4430 c3         1 BMB      -0.014400
      6 CAA          3.5410    -0.1260     1.4450 c3         1 BMB       0.006900
      7 CAB          2.0380     0.9880    -2.1460 c3         1 BMB       0.172100
      8 CAF         -4.0070    -3.9960    -9.0420 ca         1 BMB      -0.098000
      9 CAG         -3.6790     1.3750    10.1180 ca         1 BMB      -0.098000
     10 CAH          0.3290    -4.0300     8.2770 ca         1 BMB      -0.098000
     11 CAI         -2.9530    -4.6380    -8.4190 ca         1 BMB      -0.101000
     12 CAJ         -5.0670    -3.5200    -8.2920 ca         1 BMB      -0.101000
     13 CAK         -2.4990     1.8580     9.5820 ca         1 BMB      -0.097500
     14 CAL         -4.2620     0.2380     9.5910 ca         1 BMB      -0.097500
     15 CAM          0.9970    -2.8580     7.9750 ca         1 BMB      -0.097500
     16 CAN         -1.0420    -4.1060     8.1100 ca         1 BMB      -0.097500
     17 CAO         -2.9600    -4.8070    -7.0470 ca         1 BMB      -0.087000
     18 CAP         -5.0740    -3.6890    -6.9200 ca         1 BMB      -0.087000
     19 CAQ         -1.9040     1.2040     8.5200 ca         1 BMB      -0.090000
     20 CAR         -3.6670    -0.4150     8.5280 ca         1 BMB      -0.090000
     21 CAS          0.2960    -1.7630     7.5070 ca         1 BMB      -0.090000
     22 CAT         -1.7430    -3.0100     7.6440 ca         1 BMB      -0.090000
     23 CAW         -2.6900    -2.2900    -2.0730 c3         1 BMB      -0.025400
     24 CAX         -1.8070    -3.6380    -0.1620 c3         1 BMB      -0.045400
     25 CAY         -1.6970    -3.7730     1.3530 c3         1 BMB      -0.051400
     26 CAZ         -3.1730    -4.0690     3.3540 c3         1 BMB      -0.037400
     27 CBA         -4.1660    -3.1160     4.0550 c3         1 BMB      -0.036400
     28 CBB         -4.0290    -4.5160    -4.8020 c3         1 BMB       0.204100
     29 NBD         -3.3810    -3.3620    -4.1630 n7         1 BMB      -0.579200
     30 NBE         -0.6740    -1.1640     0.0790 ns         1 BMB      -0.197900
     31 CBH         -2.5640    -1.2820     4.5960 c          1 BMB       0.571100
     32 CBI         -2.6420    -0.9470     1.4810 c          1 BMB       0.621500
     33 CBJ         -4.0210    -4.3310    -6.2970 ca         1 BMB      -0.098300
     34 CBK         -2.4870     0.0690     7.9930 ca         1 BMB      -0.100800
     35 CBL         -1.0740    -1.8390     7.3420 ca         1 BMB      -0.100800
     36 CBM         -2.6780    -2.4420    -0.5460 c3         1 BMB      -0.071700
     37 CBO         -3.0270    -3.3720     1.9880 c3         1 BMB       0.017700
     38 CBP         -3.6260    -1.7390     3.6310 c3         1 BMB      -0.037300
     39 CBQ         -2.1360    -1.1630     0.0850 c3         1 BMB      -0.039300
     40 CBR         -1.8400    -0.6440     6.8330 c3         1 BMB       0.139300
     41 NBS         -3.0530    -1.9380     2.2900 n          1 BMB      -0.123800
     42 HN           1.3980     1.9730    -0.4850 hn         1 BMB       0.289800
     43 HA           1.8680    -0.8850    -0.5100 h1         1 BMB       0.033700
     44 HB           1.7300     0.9260     1.9270 hc         1 BMB       0.024700
     45 HBA          1.5850    -0.8370     1.9790 hc         1 BMB       0.024700
     46 HAA          3.8320    -1.0010     0.8760 hc         1 BMB       0.003033
     47 HAAA         3.8940    -0.2250     2.4650 hc         1 BMB       0.003033
     48 HAAB         3.9780     0.7580     0.9960 hc         1 BMB       0.003033
     49 HAB          2.4200    -0.0040    -2.3560 h1         1 BMB      -0.001300
     50 HABA         1.0390     1.0850    -2.5530 h1         1 BMB      -0.001300
     51 HABB         2.6860     1.7280    -2.6000 h1         1 BMB      -0.001300
     52 HAG         -4.1450     1.8870    10.9510 ha         1 BMB       0.103000
     53 HAH          0.8790    -4.8880     8.6430 ha         1 BMB       0.103000
     54 HAI         -2.1220    -5.0100    -9.0060 ha         1 BMB       0.102500
     55 HAJ         -5.8920    -3.0160    -8.7810 ha         1 BMB       0.102500
     56 HAK         -2.0410     2.7490     9.9950 ha         1 BMB       0.102750
     57 HAL         -5.1860    -0.1400    10.0110 ha         1 BMB       0.102750
     58 HAM          2.0710    -2.7980     8.1050 ha         1 BMB       0.102750
     59 HAN         -1.5660    -5.0240     8.3460 ha         1 BMB       0.102750
     60 HAO         -2.1340    -5.3100    -6.5590 ha         1 BMB       0.104500
     61 HAP         -5.9040    -3.3160    -6.3330 ha         1 BMB       0.104500
     62 HAQ         -0.9790     1.5830     8.1000 ha         1 BMB       0.105250
     63 HAR         -4.1240    -1.3060     8.1150 ha         1 BMB       0.105250
     64 HAS          0.8200    -0.8440     7.2710 ha         1 BMB       0.105250
     65 HAT         -2.8170    -3.0690     7.5130 ha         1 BMB       0.105250
     66 HAW         -3.2340    -1.3930    -2.3430 hc         1 BMB       0.028700
     67 HAWA        -1.6720    -2.2180    -2.4370 hc         1 BMB       0.028700
     68 HAX         -0.8160    -3.5030    -0.5790 hc         1 BMB       0.024200
     69 HAXA        -2.2480    -4.5410    -0.5670 hc         1 BMB       0.024200
     70 HAY         -1.4710    -4.8010     1.6080 hc         1 BMB       0.035700
     71 HAYA        -0.9110    -3.1220     1.7170 hc         1 BMB       0.035700
     72 HAZ         -2.2260    -4.0990     3.8780 hc         1 BMB       0.035200
     73 HAZA        -3.5990    -5.0590     3.2410 hc         1 BMB       0.035200
     74 HBAA        -5.1720    -3.2660     3.6840 hc         1 BMB       0.027700
     75 HBAB        -4.1190    -3.2330     5.1310 hc         1 BMB       0.027700
     76 HBB         -5.0520    -4.5950    -4.4520 h1         1 BMB       0.008200
     77 HBBA        -3.4900    -5.4200    -4.5480 h1         1 BMB       0.008200
     78 HNBD        -2.4410    -3.2810    -4.4970 hn         1 BMB       0.256800
     79 HNBE        -0.1750    -2.0310     0.1080 hn         1 BMB       0.189500
     80 HBM         -3.6880    -2.6110    -0.1920 hc         1 BMB       0.047700
     81 HBO         -3.8530    -3.6370     1.3380 h1         1 BMB       0.036700
     82 HBP         -4.4350    -1.0200     3.5870 h1         1 BMB       0.053700
     83 HBQ         -2.4740    -0.3300    -0.5200 h1         1 BMB       0.085700
     84 HBR         -1.1600     0.0320     6.3280 h1         1 BMB       0.067700
     85 OAD         -1.4330    -1.0870     4.2060 o          1 BMB      -0.624100
     86 OAE         -2.6920     0.1960     1.8970 o          1 BMB      -0.642500
     87 CAV         -3.3710    -3.5070    -2.7010 c3         1 BMB       0.134800
     88 NBF         -2.8720    -1.0890     5.8940 ns         1 BMB      -0.201900
     89 HAF         -4.0010    -3.8630   -10.1170 ha         1 BMB       0.102000
     90 HAV         -2.8270    -4.4050    -2.4310 h1         1 BMB       0.008200
     91 HAVA        -4.3890    -3.5790    -2.3380 h1         1 BMB       0.008200
     92 HNBF        -3.8170    -1.1980     6.2050 hn         1 BMB       0.181500
@<TRIPOS>BOND
     1     1     3 2   
     2     1     4 1   
     3     1    30 1   
     4     2     4 1   
     5     2     7 1   
     6     2    42 1   
     7     4     5 1   
     8     4    43 1   
     9     5     6 1   
    10     5    44 1   
    11     5    45 1   
    12     6    46 1   
    13     6    47 1   
    14     6    48 1   
    15     7    49 1   
    16     7    50 1   
    17     7    51 1   
    18     8    11 ar  
    19     8    12 ar  
    20     8    89 1   
    21     9    13 ar  
    22     9    14 ar  
    23     9    52 1   
    24    10    15 ar  
    25    10    16 ar  
    26    10    53 1   
    27    11    17 ar  
    28    11    54 1   
    29    12    18 ar  
    30    12    55 1   
    31    13    19 ar  
    32    13    56 1   
    33    14    20 ar  
    34    14    57 1   
    35    15    21 ar  
    36    15    58 1   
    37    16    22 ar  
    38    16    59 1   
    39    17    33 ar  
    40    17    60 1   
    41    18    33 ar  
    42    18    61 1   
    43    19    34 ar  
    44    19    62 1   
    45    20    34 ar  
    46    20    63 1   
    47    21    35 ar  
    48    21    64 1   
    49    22    35 ar  
    50    22    65 1   
    51    23    36 1   
    52    23    66 1   
    53    23    67 1   
    54    23    87 1   
    55    24    25 1   
    56    24    36 1   
    57    24    68 1   
    58    24    69 1   
    59    25    37 1   
    60    25    70 1   
    61    25    71 1   
    62    26    27 1   
    63    26    37 1   
    64    26    72 1   
    65    26    73 1   
    66    27    38 1   
    67    27    74 1   
    68    27    75 1   
    69    28    29 1   
    70    28    33 1   
    71    28    76 1   
    72    28    77 1   
    73    29    78 1   
    74    29    87 1   
    75    30    39 1   
    76    30    79 1   
    77    31    38 1   
    78    31    85 2   
    79    31    88 1   
    80    32    39 1   
    81    32    41 1   
    82    32    86 2   
    83    34    40 1   
    84    35    40 1   
    85    36    39 1   
    86    36    80 1   
    87    37    41 1   
    88    37    81 1   
    89    38    41 1   
    90    38    82 1   
    91    39    83 1   
    92    40    84 1   
    93    40    88 1   
    94    87    90 1   
    95    87    91 1   
    96    88    92 1   
@<TRIPOS>SUBSTRUCTURE
     1 BMB         1 TEMP              0 ****  ****    0 ROOT
