@<TRIPOS>MOLECULE
molecule
   92    96     1     0     0
SMALL
bcc


@<TRIPOS>ATOM
      1 C            0.0000     0.0000     0.0000 c          1 BMB       0.627100
      2 N            1.9970     1.1990    -0.6930 n7         1 BMB      -0.803200
      3 O           -0.6060     1.0490    -0.0670 o          1 BMB      -0.588100
      4 CA           1.5070     0.0000     0.0000 c3         1 BMB       0.095500
      5 CB           2.0170     0.0000     1.4430 c3         1 BMB      -0.067400
      6 CAA          3.5410    -0.1260     1.4450 c3         1 BMB      -0.085100
      7 CAB          2.0380     0.9880    -2.1460 c3         1 BMB       0.141100
      8 CAF         -4.0070    -3.9960    -9.0420 ca         1 BMB      -0.125000
      9 CAG         -3.6790     1.3750    10.1180 ca         1 BMB      -0.125500
     10 CAH          0.3290    -4.0300     8.2770 ca         1 BMB      -0.125500
     11 CAI         -2.9530    -4.6380    -8.4190 ca         1 BMB      -0.129000
     12 CAJ         -5.0670    -3.5200    -8.2920 ca         1 BMB      -0.129000
     13 CAK         -2.4990     1.8580     9.5820 ca         1 BMB      -0.126000
     14 CAL         -4.2620     0.2380     9.5910 ca         1 BMB      -0.126000
     15 CAM          0.9970    -2.8580     7.9750 ca         1 BMB      -0.126000
     16 CAN         -1.0420    -4.1060     8.1100 ca         1 BMB      -0.126000
     17 CAO         -2.9600    -4.8070    -7.0470 ca         1 BMB      -0.115000
     18 CAP         -5.0740    -3.6890    -6.9200 ca         1 BMB      -0.115000
     19 CAQ         -1.9040     1.2040     8.5200 ca         1 BMB      -0.114500
     20 CAR         -3.6670    -0.4150     8.5280 ca         1 BMB      -0.114500
     21 CAS          0.2960    -1.7630     7.5070 ca         1 BMB      -0.114500
     22 CAT         -1.7430    -3.0100     7.6440 ca         1 BMB      -0.114500
     23 CAW         -2.6900    -2.2900    -2.0730 c3         1 BMB      -0.077400
     24 CAX         -1.8070    -3.6380    -0.1620 c3         1 BMB      -0.089400
     25 CAY         -1.6970    -3.7730     1.3530 c3         1 BMB      -0.100400
     26 CAZ         -3.1730    -4.0690     3.3540 c3         1 BMB      -0.094400
     27 CBA         -4.1660    -3.1160     4.0550 c3         1 BMB      -0.095400
     28 CBB         -4.0290    -4.5160    -4.8020 c3         1 BMB       0.204100
     29 NBD         -3.3810    -3.3620    -4.1630 n7         1 BMB      -0.812200
     30 NBE         -0.6740    -1.1640     0.0790 ns         1 BMB      -0.576900
     31 CBH         -2.5640    -1.2820     4.5960 c          1 BMB       0.654100
     32 CBI         -2.6420    -0.9470     1.4810 c          1 BMB       0.701500
     33 CBJ         -4.0210    -4.3310    -6.2970 ca         1 BMB      -0.087300
     34 CBK         -2.4870     0.0690     7.9930 ca         1 BMB      -0.090300
     35 CBL         -1.0740    -1.8390     7.3420 ca         1 BMB      -0.090300
     36 CBM         -2.6780    -2.4420    -0.5460 c3         1 BMB      -0.090700
     37 CBO         -3.0270    -3.3720     1.9880 c3         1 BMB       0.106700
     38 CBP         -3.6260    -1.7390     3.6310 c3         1 BMB       0.043700
     39 CBQ         -2.1360    -1.1630     0.0850 c3         1 BMB       0.062700
     40 CBR         -1.8400    -0.6440     6.8330 c3         1 BMB       0.213300
     41 NBS         -3.0530    -1.9380     2.2900 n          1 BMB      -0.470800
     42 HN           1.3980     1.9730    -0.4850 hn         1 BMB       0.385800
     43 HA           1.8680    -0.8850    -0.5100 h1         1 BMB       0.057700
     44 HB           1.7300     0.9260     1.9270 hc         1 BMB       0.056200
     45 HBA          1.5850    -0.8370     1.9790 hc         1 BMB       0.056200
     46 HAA          3.8320    -1.0010     0.8760 hc         1 BMB       0.035367
     47 HAAA         3.8940    -0.2250     2.4650 hc         1 BMB       0.035367
     48 HAAB         3.9780     0.7580     0.9960 hc         1 BMB       0.035367
     49 HAB          2.4200    -0.0040    -2.3560 h1         1 BMB       0.031700
     50 HABA         1.0390     1.0850    -2.5530 h1         1 BMB       0.031700
     51 HABB         2.6860     1.7280    -2.6000 h1         1 BMB       0.031700
     52 HAG         -4.1450     1.8870    10.9510 ha         1 BMB       0.129500
     53 HAH          0.8790    -4.8880     8.6430 ha         1 BMB       0.129500
     54 HAI         -2.1220    -5.0100    -9.0060 ha         1 BMB       0.130000
     55 HAJ         -5.8920    -3.0160    -8.7810 ha         1 BMB       0.130000
     56 HAK         -2.0410     2.7490     9.9950 ha         1 BMB       0.129750
     57 HAL         -5.1860    -0.1400    10.0110 ha         1 BMB       0.129750
     58 HAM          2.0710    -2.7980     8.1050 ha         1 BMB       0.129750
     59 HAN         -1.5660    -5.0240     8.3460 ha         1 BMB       0.129750
     60 HAO         -2.1340    -5.3100    -6.5590 ha         1 BMB       0.130000
     61 HAP         -5.9040    -3.3160    -6.3330 ha         1 BMB       0.130000
     62 HAQ         -0.9790     1.5830     8.1000 ha         1 BMB       0.128750
     63 HAR         -4.1240    -1.3060     8.1150 ha         1 BMB       0.128750
     64 HAS          0.8200    -0.8440     7.2710 ha         1 BMB       0.128750
     65 HAT         -2.8170    -3.0690     7.5130 ha         1 BMB       0.128750
     66 HAW         -3.2340    -1.3930    -2.3430 hc         1 BMB       0.057200
     67 HAWA        -1.6720    -2.2180    -2.4370 hc         1 BMB       0.057200
     68 HAX         -0.8160    -3.5030    -0.5790 hc         1 BMB       0.045200
     69 HAXA        -2.2480    -4.5410    -0.5670 hc         1 BMB       0.045200
     70 HAY         -1.4710    -4.8010     1.6080 hc         1 BMB       0.062700
     71 HAYA        -0.9110    -3.1220     1.7170 hc         1 BMB       0.062700
     72 HAZ         -2.2260    -4.0990     3.8780 hc         1 BMB       0.064200
     73 HAZA        -3.5990    -5.0590     3.2410 hc         1 BMB       0.064200
     74 HBAA        -5.1720    -3.2660     3.6840 hc         1 BMB       0.058200
     75 HBAB        -4.1190    -3.2330     5.1310 hc         1 BMB       0.058200
     76 HBB         -5.0520    -4.5950    -4.4520 h1         1 BMB       0.037200
     77 HBBA        -3.4900    -5.4200    -4.5480 h1         1 BMB       0.037200
     78 HNBD        -2.4410    -3.2810    -4.4970 hn         1 BMB       0.356800
     79 HNBE        -0.1750    -2.0310     0.1080 hn         1 BMB       0.319500
     80 HBM         -3.6880    -2.6110    -0.1920 hc         1 BMB       0.068700
     81 HBO         -3.8530    -3.6370     1.3380 h1         1 BMB       0.053700
     82 HBP         -4.4350    -1.0200     3.5870 h1         1 BMB       0.083700
     83 HBQ         -2.4740    -0.3300    -0.5200 h1         1 BMB       0.110700
     84 HBR         -1.1600     0.0320     6.3280 h1         1 BMB       0.094700
     85 OAD         -1.4330    -1.0870     4.2060 o          1 BMB      -0.580100
     86 OAE         -2.6920     0.1960     1.8970 o          1 BMB      -0.605500
     87 CAV         -3.3710    -3.5070    -2.7010 c3         1 BMB       0.153800
     88 NBF         -2.8720    -1.0890     5.8940 ns         1 BMB      -0.584900
     89 HAF         -4.0010    -3.8630   -10.1170 ha         1 BMB       0.129000
     90 HAV         -2.8270    -4.4050    -2.4310 h1         1 BMB       0.031200
     91 HAVA        -4.3890    -3.5790    -2.3380 h1         1 BMB       0.031200
     92 HNBF        -3.8170    -1.1980     6.2050 hn         1 BMB       0.313500
@<TRIPOS>BOND
     1     1     3 2
     2     1     4 1
     3     1    30 1
     4     2     4 1
     5     2     7 1
     6     4     5 1
     7     5     6 1
     8    85    31 2
     9    86    32 2
    10     8    11 ar
    11     8    12 ar
    12     9    13 ar
    13     9    14 ar
    14    10    15 ar
    15    10    16 ar
    16    11    17 ar
    17    12    18 ar
    18    13    19 ar
    19    14    20 ar
    20    15    21 ar
    21    16    22 ar
    22    17    33 ar
    23    18    33 ar
    24    19    34 ar
    25    20    34 ar
    26    21    35 ar
    27    22    35 ar
    28    87    23 1
    29    87    29 1
    30    23    36 1
    31    24    25 1
    32    24    36 1
    33    25    37 1
    34    26    27 1
    35    26    37 1
    36    27    38 1
    37    28    29 1
    38    28    33 1
    39    30    39 1
    40    88    31 1
    41    88    40 1
    42    31    38 1
    43    32    39 1
    44    32    41 1
    45    34    40 1
    46    35    40 1
    47    36    39 1
    48    37    41 1
    49    38    41 1
    50     2    42 1
    51     4    43 1
    52     5    44 1
    53     5    45 1
    54     6    46 1
    55     6    47 1
    56     6    48 1
    57     7    49 1
    58     7    50 1
    59     7    51 1
    60     8    89 1
    61     9    52 1
    62    10    53 1
    63    11    54 1
    64    12    55 1
    65    13    56 1
    66    14    57 1
    67    15    58 1
    68    16    59 1
    69    17    60 1
    70    18    61 1
    71    19    62 1
    72    20    63 1
    73    21    64 1
    74    22    65 1
    75    87    90 1
    76    87    91 1
    77    23    66 1
    78    23    67 1
    79    24    68 1
    80    24    69 1
    81    25    70 1
    82    25    71 1
    83    26    72 1
    84    26    73 1
    85    27    74 1
    86    27    75 1
    87    28    76 1
    88    28    77 1
    89    29    78 1
    90    30    79 1
    91    88    92 1
    92    36    80 1
    93    37    81 1
    94    38    82 1
    95    39    83 1
    96    40    84 1
@<TRIPOS>SUBSTRUCTURE
     1 BMB         1 TEMP              0 ****  ****    0 ROOT
