@<TRIPOS>MOLECULE
BMC
   27    29     1     0     0
SMALL
bcc


@<TRIPOS>ATOM
      1 C1         -0.0280    0.3010   -0.0470 ca        1 BMC     -0.101000
      2 C2          1.3640    0.0370   -0.0430 ca        1 BMC     -0.058500
      3 C3          2.0430   -0.1970    1.1620 ca        1 BMC     -0.136000
      4 C4          1.3960   -0.1780    2.4080 ca        1 BMC     -0.113000
      5 C5          0.0410    0.0820    2.3920 ca        1 BMC      0.024100
      6 C6         -0.6550    0.3160    1.1810 ca        1 BMC      0.041100
      7 O7         -2.0030    0.5490    1.4650 os        1 BMC     -0.343900
      8 C8         -2.1460    0.4560    2.8980 c3        1 BMC      0.323200
      9 O9         -0.8510    0.1620    3.4630 os        1 BMC     -0.346900
     10 C10         2.1030    0.0080   -1.2910 cc        1 BMC      0.296800
     11 C11         3.5410    0.0480   -1.4310 cc        1 BMC     -0.284300
     12 C12         3.7860   -0.0040   -2.8150 cd        1 BMC     -0.124900
     13 N13         2.5210   -0.0720   -3.4270 na        1 BMC      0.123400
     14 N14         1.5240   -0.0650   -2.5360 nd        1 BMC     -0.552800
     15 C15         5.1450    0.0090   -3.4930 c         1 BMC      0.938200
     16 O16         5.2070   -0.0190   -4.7540 o         1 BMC     -0.814800
     17 O17         6.1440    0.0500   -2.7280 o         1 BMC     -0.814800
     18 C18         2.2780   -0.1500   -4.8480 c3        1 BMC      0.018600
     19 H1         -0.5760    0.4850   -0.9800 ha        1 BMC      0.168000
     20 H3          3.1240   -0.4050    1.1330 ha        1 BMC      0.151000
     21 H4          1.9430   -0.3610    3.3400 ha        1 BMC      0.142000
     22 H8         -2.4900    1.4460    3.2880 h2        1 BMC      0.055700
     23 H8A        -2.8400   -0.3880    3.1340 h2        1 BMC      0.055700
     24 H11         4.2930    0.1160   -0.6550 ha        1 BMC      0.166000
     25 H18         1.7330   -1.1000   -5.0930 h1        1 BMC      0.062367
     26 H18A        3.2720   -0.1300   -5.3800 h1        1 BMC      0.062367
     27 H18B        1.6510    0.7200   -5.1790 h1        1 BMC      0.062367
@<TRIPOS>BOND
     1    1    2 ar  
     2    1    6 ar  
     3    1   19 1   
     4    2    3 ar  
     5    2   10 1   
     6    3    4 ar  
     7    3   20 1   
     8    4    5 ar  
     9    4   21 1   
    10    5    6 ar  
    11    5    9 1   
    12    6    7 1   
    13    7    8 1   
    14    8    9 1   
    15    8   22 1   
    16    8   23 1   
    17   10   11 1   
    18   10   14 2   
    19   11   12 2   
    20   11   24 1   
    21   12   13 1   
    22   12   15 1   
    23   13   14 1   
    24   13   18 1   
    25   15   16 1   
    26   15   17 1   
    27   18   25 1   
    28   18   26 1   
    29   18   27 1   
@<TRIPOS>SUBSTRUCTURE
     1 BMC         1 TEMP              0 ****  ****    0 ROOT
