@<TRIPOS>MOLECULE
molecule
   27    29     1     0     0
SMALL
bcc


@<TRIPOS>ATOM
      1 C1           0.0000     0.0000     0.0000 ca         1 BMC      -0.106000
      2 C2           1.3920     0.0000     0.0000 ca         1 BMC      -0.053500
      3 C3           2.0870     0.0000     1.2070 ca         1 BMC      -0.124000
      4 C4           1.3970     0.0010     2.4010 ca         1 BMC      -0.116000
      5 C5           0.0090     0.0010     2.4040 ca         1 BMC       0.016100
      6 C6          -0.6910     0.0010     1.1990 ca         1 BMC       0.038100
      7 O7          -2.0280     0.0020     1.4720 os         1 BMC      -0.334900
      8 C8          -2.1400     0.4160     2.8460 c3         1 BMC       0.331200
      9 O9          -0.8900    -0.0000     3.4310 os         1 BMC      -0.338900
     10 C10          2.1360    -0.0020    -1.2860 cc         1 BMC       0.308800
     11 C11          3.5340    -0.0020    -1.4370 cc         1 BMC      -0.295300
     12 C12          3.7530    -0.0030    -2.8020 cd         1 BMC      -0.132900
     13 N13          2.5200    -0.0030    -3.3920 na         1 BMC       0.163400
     14 N14          1.6040    -0.0080    -2.4900 nd         1 BMC      -0.566800
     15 C15          5.0560    -0.0030    -3.4850 c          1 BMC       0.906200
     16 O16          5.1110    -0.0050    -4.8320 o          1 BMC      -0.828800
     17 O17          6.0820    -0.0040    -2.8350 o          1 BMC      -0.828800
     18 C18          2.2780    -0.0040    -4.8370 c3         1 BMC       0.072600
     19 H1          -0.5420    -0.0000    -0.9380 ha         1 BMC       0.159000
     20 H3           3.1700    -0.0000     1.2080 ha         1 BMC       0.151000
     21 H4           1.9390     0.0010     3.3390 ha         1 BMC       0.132000
     22 H8          -2.2300     1.4940     2.8990 h2         1 BMC       0.058700
     23 H8A         -2.9610    -0.1070     3.3220 h2         1 BMC       0.058700
     24 H11          4.2800    -0.0020    -0.6520 ha         1 BMC       0.160000
     25 H18          1.2110    -0.0030    -5.0240 h1         1 BMC       0.056700
     26 H18A         2.7220     0.8800    -5.2780 h1         1 BMC       0.056700
     27 H18B         2.7210    -0.8890    -5.2770 h1         1 BMC       0.056700
@<TRIPOS>BOND
     1     1     2 ar
     2     1     6 ar
     3     2     3 ar
     4     2    10 1
     5     3     4 ar
     6     4     5 ar
     7     5     6 ar
     8     5     9 1
     9     6     7 1
    10     7     8 1
    11     8     9 1
    12    10    11 1
    13    10    14 2
    14    11    12 2
    15    12    13 1
    16    12    15 1
    17    13    14 1
    18    13    18 1
    19    15    16 1
    20    15    17 1
    21     1    19 1
    22     3    20 1
    23     4    21 1
    24     8    22 1
    25     8    23 1
    26    11    24 1
    27    18    25 1
    28    18    26 1
    29    18    27 1
@<TRIPOS>SUBSTRUCTURE
     1 BMC         1 TEMP              0 ****  ****    0 ROOT
