@<TRIPOS>MOLECULE
BMD
   16    15     1     0     0
SMALL
bcc


@<TRIPOS>ATOM
      1 C3           0.0000     0.0000     0.0000 c3         1 BMD       0.010900
      2 C2           1.5290     0.0000     0.0000 c3         1 BMD      -0.016400
      3 C1           2.0400     0.0000     1.4420 c3         1 BMD      -0.091400
      4 CA           3.5460    -0.0000     1.4420 c          1 BMD       0.306100
      5 OA           4.1520    -0.0000     0.3920 o          1 BMD      -0.387100
      6 NA           4.2200    -0.0000     2.6080 nz         1 BMD       0.196600
      7 H33         -0.3610     0.0000    -1.0210 hc         1 BMD       0.016700
      8 H32         -0.3610    -0.8850     0.5110 hc         1 BMD       0.016700
      9 H31         -0.3610     0.8840     0.5110 hc         1 BMD       0.016700
     10 H22          1.8900     0.8840    -0.5110 hc         1 BMD       0.036700
     11 H21          1.8900    -0.8840    -0.5110 hc         1 BMD       0.036700
     12 H12          1.6790     0.8840     1.9530 hc         1 BMD       0.057700
     13 H11          1.6790    -0.8840     1.9530 hc         1 BMD       0.057700
     14 HN1          3.9780    -0.8170     3.1330 hn         1 BMD       0.247800
     15 HN2          3.9790     0.8170     3.1330 hn         1 BMD       0.247800
     16 HA3          5.2040    -0.0000     2.4250 hn         1 BMD       0.247800
@<TRIPOS>BOND
     1     1     2 1   
     2     1     7 1   
     3     1     8 1   
     4     1     9 1   
     5     2     3 1   
     6     2    10 1   
     7     2    11 1   
     8     3     4 1   
     9     3    12 1   
    10     3    13 1   
    11     4     5 2   
    12     4     6 1   
    13     6    14 1   
    14     6    15 1   
    15     6    16 1   
@<TRIPOS>SUBSTRUCTURE
     1 BMD         1 TEMP              0 ****  ****    0 ROOT
