@<TRIPOS>MOLECULE
BME
   10     9     1     0     0
SMALL
bcc


@<TRIPOS>ATOM
      1 C1          0.0180    0.0010   -0.0270 c3        1 BME      0.141400
      2 C2          1.5320   -0.0010   -0.0300 c3        1 BME      0.000700
      3 O1         -0.3860   -0.0000    1.3350 oh        1 BME     -0.601800
      4 S2          2.0470    0.0010   -1.7240 sh        1 BME     -0.376900
      5 H11        -0.3810   -0.9130   -0.5450 h1        1 BME      0.038700
      6 H12        -0.3790    0.9180   -0.5420 h1        1 BME      0.038700
      7 H21         1.9120   -0.9050    0.5030 h1        1 BME      0.074700
      8 H22         1.9150    0.8990    0.5070 h1        1 BME      0.074700
      9 HO1        -1.3500    0.0020    1.3350 ho        1 BME      0.404000
     10 HS2         3.3550   -0.0010   -1.5340 hs        1 BME      0.207800
@<TRIPOS>BOND
     1    1    2 1   
     2    1    3 1   
     3    1    5 1   
     4    1    6 1   
     5    2    4 1   
     6    2    7 1   
     7    2    8 1   
     8    3    9 1   
     9    4   10 1   
@<TRIPOS>SUBSTRUCTURE
     1 BME         1 TEMP              0 ****  ****    0 ROOT
