@<TRIPOS>MOLECULE
molecule
   10     9     1     0     0
SMALL
bcc


@<TRIPOS>ATOM
      1 C1           0.0000     0.0000     0.0000 c3         1 BME       0.156400
      2 C2           1.5280     0.0000     0.0000 c3         1 BME       0.039700
      3 O1          -0.4760     0.0000     1.3480 oh         1 BME      -0.611800
      4 S2           2.1330    -0.0000    -1.7100 sh         1 BME      -0.428900
      5 H11         -0.3610     0.8850    -0.5110 h1         1 BME       0.035700
      6 H12         -0.3610    -0.8850    -0.5110 h1         1 BME       0.035700
      7 H21          1.8890    -0.8840     0.5110 h1         1 BME       0.068700
      8 H22          1.8890     0.8840     0.5110 h1         1 BME       0.068700
      9 HO1         -1.4190    -0.0000     1.3480 ho         1 BME       0.409000
     10 HS2          3.4610    -0.0000    -1.7090 hs         1 BME       0.227800
@<TRIPOS>BOND
     1     1     2 1
     2     1     3 1
     3     1     5 1
     4     1     6 1
     5     2     4 1
     6     2     7 1
     7     2     8 1
     8     3     9 1
     9     4    10 1
@<TRIPOS>SUBSTRUCTURE
     1 BME         1 TEMP              0 ****  ****    0 ROOT
