@<TRIPOS>MOLECULE
molecule
   48    50     1     0     0
SMALL
bcc


@<TRIPOS>ATOM
      1 C10          0.0000     0.0000     0.0000 ca         1 BMF      -0.131500
      2 N12         -0.0790    -0.0050    -2.4190 nc         1 BMF      -0.471800
      3 C15         -2.8460    -0.0180    -2.4490 cd         1 BMF       0.201600
      4 C17         -4.9100    -1.0130    -3.0730 c          1 BMF       0.759100
      5 C20         -8.4200    -1.8370    -3.8470 c3         1 BMF      -0.098100
      6 C22         -2.1520    -0.0120    -1.2710 cc         1 BMF      -0.298300
      7 C28          0.0000     0.0040     2.4040 ca         1 BMF      -0.113000
      8 C01          2.1320     0.0160     3.7120 c3         1 BMF      -0.046800
      9 C02          1.3820     0.0100     2.4050 ca         1 BMF      -0.090300
     10 C03          2.0810     0.0000     1.2040 ca         1 BMF       0.136600
     11 N04          3.4780    -0.0050     1.2090 nu         1 BMF      -0.765500
     12 S05          4.3140     0.8210     0.0430 s6         1 BMF       1.322900
     13 C06          3.7820     2.5450     0.2410 c3         1 BMF      -0.241300
     14 O07          5.6770     0.6740     0.4170 o          1 BMF      -0.621800
     15 O08          3.8290     0.2870    -1.1810 o          1 BMF      -0.621800
     16 C09          1.3930     0.0000     0.0000 ca         1 BMF      -0.140000
     17 C11         -0.7440    -0.0060    -1.2840 cc         1 BMF       0.486800
     18 N13         -0.7560    -0.0100    -3.6400 na         1 BMF       0.096300
     19 C14         -2.1290    -0.0160    -3.6670 cd         1 BMF      -0.145300
     20 O18         -6.2520    -0.9650    -3.1610 os         1 BMF      -0.439900
     21 C19         -6.9070    -2.0640    -3.8480 c3         1 BMF       0.165400
     22 O21         -4.3010    -1.9460    -3.5570 o          1 BMF      -0.569000
     23 N23         -2.4870    -0.0220    -4.9400 nc         1 BMF      -0.041000
     24 N24         -1.4330    -0.0180    -5.6780 nc         1 BMF      -0.361700
     25 C25         -0.3570    -0.0120    -4.9300 cd         1 BMF       0.358800
     26 C27         -0.6930    -0.0010     1.2090 ca         1 BMF      -0.117000
     27 H1          -8.7770    -1.7890    -2.8250 hc         1 BMF       0.048700
     28 H2          -8.9090    -2.6550    -4.3620 hc         1 BMF       0.048700
     29 H3          -8.6460    -0.9060    -4.3520 hc         1 BMF       0.048700
     30 H4          -2.6850     0.0180    -0.3280 ha         1 BMF       0.156000
     31 H5           1.0760    -0.0150    -6.5040 hc         1 BMF       0.063700
     32 H6           1.5810    -0.8850    -5.0490 hc         1 BMF       0.063700
     33 H7           1.5690     0.8840    -5.0630 hc         1 BMF       0.063700
     34 H8          -0.5410     0.0040     3.3420 ha         1 BMF       0.140000
     35 H9           2.7220    -0.8900     3.7930 hc         1 BMF       0.047367
     36 H10          1.4260     0.0620     4.5320 hc         1 BMF       0.047367
     37 H11          2.7870     0.8780     3.7490 hc         1 BMF       0.047367
     38 H12          3.9740    -0.5450     1.8900 hn         1 BMF       0.468800
     39 H13          3.7770     2.8020     1.2930 h1         1 BMF       0.101367
     40 H14          4.4660     3.1970    -0.2880 h1         1 BMF       0.101367
     41 H15          2.7840     2.6630    -0.1640 h1         1 BMF       0.101367
     42 H16          1.9360    -0.0080    -0.9370 ha         1 BMF       0.205000
     43 H17         -4.7420     0.6770    -1.9400 hn         1 BMF       0.341500
     44 H18         -6.6810    -2.9930    -3.3400 h1         1 BMF       0.054700
     45 H19         -6.5500    -2.1140    -4.8700 h1         1 BMF       0.054700
     46 H20         -1.7760    -0.0030     1.2120 ha         1 BMF       0.136000
     47 N16         -4.2390    -0.0240    -2.4480 ns         1 BMF      -0.472100
     48 C26          1.0670    -0.0060    -5.4210 c3         1 BMF      -0.084400
@<TRIPOS>BOND
     1    13    12 1
     2    15    12 2
     3    12    14 2
     4    12    11 1
     5    11    10 1
     6     8     9 1
     7    10     9 ar
     8    10    16 ar
     9     9     7 ar
    10    16     1 ar
    11     7    26 ar
    12     1    26 ar
    13     1    17 1
    14    22     4 2
    15    21     5 1
    16    21    20 1
    17     6    17 1
    18     6     3 2
    19    17     2 2
    20     4    20 1
    21     4    47 1
    22     3    47 1
    23     3    19 1
    24     2    18 1
    25    18    19 1
    26    18    25 1
    27    19    23 2
    28    25    48 1
    29    25    24 2
    30    23    24 1
    31     5    27 1
    32     5    28 1
    33     5    29 1
    34     6    30 1
    35    48    31 1
    36    48    32 1
    37    48    33 1
    38     7    34 1
    39     8    35 1
    40     8    36 1
    41     8    37 1
    42    11    38 1
    43    13    39 1
    44    13    40 1
    45    13    41 1
    46    16    42 1
    47    47    43 1
    48    21    44 1
    49    21    45 1
    50    26    46 1
@<TRIPOS>SUBSTRUCTURE
     1 BMF         1 TEMP              0 ****  ****    0 ROOT
