@<TRIPOS>MOLECULE
BMF
   48    50     1     0     0
SMALL
bcc


@<TRIPOS>ATOM
      1 C10          0.0000     0.0000     0.0000 ca         1 BMF      -0.149500
      2 N12         -0.0790    -0.0050    -2.4190 nc         1 BMF      -0.604800
      3 C15         -2.8460    -0.0180    -2.4490 cc         1 BMF       0.080600
      4 C17         -4.9100    -1.0130    -3.0730 c          1 BMF       0.680100
      5 C20         -8.4200    -1.8370    -3.8470 c3         1 BMF      -0.005100
      6 C22         -2.1520    -0.0120    -1.2710 cd         1 BMF      -0.309300
      7 C28          0.0000     0.0040     2.4040 ca         1 BMF      -0.084000
      8 C01          2.1320     0.0160     3.7120 c3         1 BMF       0.067200
      9 C02          1.3820     0.0100     2.4050 ca         1 BMF      -0.109300
     10 C03          2.0810     0.0000     1.2040 ca         1 BMF       0.059600
     11 N04          3.4780    -0.0050     1.2090 nu         1 BMF      -0.407500
     12 S05          4.3140     0.8210     0.0430 s6         1 BMF       0.951900
     13 C06          3.7820     2.5450     0.2410 c3         1 BMF       0.015700
     14 O07          5.6770     0.6740     0.4170 o          1 BMF      -0.579800
     15 O08          3.8290     0.2870    -1.1810 o          1 BMF      -0.579800
     16 C09          1.3930     0.0000     0.0000 ca         1 BMF      -0.132000
     17 C11         -0.7440    -0.0060    -1.2840 cd         1 BMF       0.530800
     18 N13         -0.7560    -0.0100    -3.6400 na         1 BMF       0.585300
     19 C14         -2.1290    -0.0160    -3.6670 cc         1 BMF      -0.334300
     20 O18         -6.2520    -0.9650    -3.1610 os         1 BMF      -0.424900
     21 C19         -6.9070    -2.0640    -3.8480 c3         1 BMF       0.243400
     22 O21         -4.3010    -1.9460    -3.5570 o          1 BMF      -0.617000
     23 N23         -2.4870    -0.0220    -4.9400 nd         1 BMF      -0.023000
     24 N24         -1.4330    -0.0180    -5.6780 nd         1 BMF      -0.332700
     25 C25         -0.3570    -0.0120    -4.9300 cc         1 BMF       0.147800
     26 C27         -0.6930    -0.0010     1.2090 ca         1 BMF      -0.102000
     27 H1          -8.7770    -1.7890    -2.8250 hc         1 BMF       0.010700
     28 H2          -8.9090    -2.6550    -4.3620 hc         1 BMF       0.010700
     29 H3          -8.6460    -0.9060    -4.3520 hc         1 BMF       0.010700
     30 H4          -2.6850     0.0180    -0.3280 ha         1 BMF       0.139000
     31 H5           1.0760    -0.0150    -6.5040 hc         1 BMF       0.019033
     32 H6           1.5810    -0.8850    -5.0490 hc         1 BMF       0.019033
     33 H7           1.5690     0.8840    -5.0630 hc         1 BMF       0.019033
     34 H8          -0.5410     0.0040     3.3420 ha         1 BMF       0.110000
     35 H9           2.7220    -0.8900     3.7930 hc         1 BMF       0.009700
     36 H10          1.4260     0.0620     4.5320 hc         1 BMF       0.009700
     37 H11          2.7870     0.8780     3.7490 hc         1 BMF       0.009700
     38 H12          3.9740    -0.5450     1.8900 hn         1 BMF       0.354800
     39 H13          3.7770     2.8020     1.2930 h1         1 BMF       0.065700
     40 H14          4.4660     3.1970    -0.2880 h1         1 BMF       0.065700
     41 H15          2.7840     2.6630    -0.1640 h1         1 BMF       0.065700
     42 H16          1.9360    -0.0080    -0.9370 ha         1 BMF       0.194000
     43 H17         -4.7420     0.6770    -1.9400 hn         1 BMF       0.175500
     44 H18         -6.6810    -2.9930    -3.3400 h1         1 BMF       0.012700
     45 H19         -6.5500    -2.1140    -4.8700 h1         1 BMF       0.012700
     46 H20         -1.7760    -0.0030     1.2120 ha         1 BMF       0.110000
     47 N16         -4.2390    -0.0240    -2.4480 ns         1 BMF      -0.026100
     48 C26          1.0670    -0.0060    -5.4210 c3         1 BMF       0.034600
@<TRIPOS>BOND
     1     1    16 ar  
     2     1    17 1   
     3     1    26 ar  
     4     2    17 2   
     5     2    18 1   
     6     3     6 2   
     7     3    19 1   
     8     3    47 1   
     9     4    20 1   
    10     4    22 2   
    11     4    47 1   
    12     5    21 1   
    13     5    27 1   
    14     5    28 1   
    15     5    29 1   
    16     6    17 1   
    17     6    30 1   
    18     7     9 ar  
    19     7    26 ar  
    20     7    34 1   
    21     8     9 1   
    22     8    35 1   
    23     8    36 1   
    24     8    37 1   
    25     9    10 ar  
    26    10    11 1   
    27    10    16 ar  
    28    11    12 1   
    29    11    38 1   
    30    12    13 1   
    31    12    14 2   
    32    12    15 2   
    33    13    39 1   
    34    13    40 1   
    35    13    41 1   
    36    16    42 1   
    37    18    19 1   
    38    18    25 1   
    39    19    23 2   
    40    20    21 1   
    41    21    44 1   
    42    21    45 1   
    43    23    24 1   
    44    24    25 2   
    45    25    48 1   
    46    26    46 1   
    47    31    48 1   
    48    32    48 1   
    49    33    48 1   
    50    43    47 1   
@<TRIPOS>SUBSTRUCTURE
     1 BMF         1 TEMP              0 ****  ****    0 ROOT
