@<TRIPOS>MOLECULE
molecule
   44    46     1     0     0
SMALL
bcc


@<TRIPOS>ATOM
      1 C1           0.0000     0.0000     0.0000 c3         1 BMG      -0.021500
      2 C3           0.7480     0.0010     2.2050 ce         1 BMG       0.260800
      3 C5           1.5400     0.0000     0.0000 c3         1 BMG       0.244500
      4 C6           2.0720    -1.2570    -0.6900 c3         1 BMG      -0.209700
      5 C7           1.7260    -2.4690     0.1360 c          1 BMG       0.595900
      6 C8           3.5920    -1.1550    -0.8350 c3         1 BMG       0.153100
      7 C11          0.7540     0.0020     3.6150 c          1 BMG       0.824800
      8 C17         -2.5780     1.6300     1.5270 c3         1 BMG      -0.085600
      9 C18         -2.9290     1.6010     0.0240 c3         1 BMG       0.042800
     10 C20         -5.3380     0.8930    -0.8240 cc         1 BMG       0.572400
     11 C22         -6.2350     1.2590     1.1070 cd         1 BMG       0.572400
     12 C9           3.9430     0.0750    -1.6730 c3         1 BMG      -0.126100
     13 O14          1.1450    -3.3990    -0.3700 o          1 BMG      -0.545100
     14 O15          4.1850    -1.0350     0.4600 oh         1 BMG      -0.607800
     15 C10         -0.5340    -1.2570    -0.6890 c3         1 BMG      -0.104100
     16 N4           1.9120     0.0000     1.4210 nu         1 BMG      -0.778000
     17 O13         -0.3920    -0.1050     4.2880 o          1 BMG      -0.797300
     18 O12          1.9070     0.1100     4.2760 o          1 BMG      -0.797300
     19 C2          -0.3800     0.0010     1.4630 c2         1 BMG      -0.268600
     20 S16         -2.0250     0.0030     2.0950 ss         1 BMG      -0.099700
     21 C24         -3.9280     2.0080     2.1750 c3         1 BMG       0.042800
     22 N23         -4.9490     1.5430     1.2260 na         1 BMG      -0.178700
     23 N19         -4.3670     1.3060    -0.0270 na         1 BMG      -0.178700
     24 N21         -6.4630     0.8670    -0.1330 nd         1 BMG      -0.720000
     25 H1          -0.3750     0.8930    -0.4860 hc         1 BMG       0.017700
     26 H5           1.9150     0.8920    -0.4860 h1         1 BMG       0.053700
     27 H6           1.6210    -1.3480    -1.6710 hc         1 BMG       0.084700
     28 H7           1.9930    -2.5030     1.1850 h4         1 BMG       0.040200
     29 H8           3.9690    -2.0460    -1.3230 h1         1 BMG       0.037700
     30 H17         -1.8320     2.3890     1.7300 h1         1 BMG       0.130700
     31 H18A        -2.3870     0.7910    -0.4480 h1         1 BMG       0.110700
     32 H20         -5.2300     0.6220    -1.8670 h5         1 BMG       0.117100
     33 H22         -6.9760     1.3340     1.8930 h5         1 BMG       0.117100
     34 H9           3.1680     0.2410    -2.4130 hc         1 BMG       0.044367
     35 H9A          4.0190     0.9420    -1.0290 hc         1 BMG       0.044367
     36 H9B          4.8900    -0.0880    -2.1730 hc         1 BMG       0.044367
     37 HO15         5.0790    -1.3330     0.4250 ho         1 BMG       0.411000
     38 H10          0.1080    -1.5120    -1.5240 hc         1 BMG       0.041700
     39 H10A        -1.5390    -1.0710    -1.0500 hc         1 BMG       0.041700
     40 H10B        -0.5510    -2.0770     0.0180 hc         1 BMG       0.041700
     41 HN4          2.8490     0.0000     1.7740 hn         1 BMG       0.498800
     42 H24         -4.0370     1.4630     3.1040 h1         1 BMG       0.110700
     43 H24A        -3.9890     3.0870     2.2560 h1         1 BMG       0.110700
     44 H18         -2.7570     2.5850    -0.3960 h1         1 BMG       0.110700
@<TRIPOS>BOND
     1    12     6 1
     2    15     1 1
     3    14     6 1
     4     6     4 1
     5     4     3 1
     6     4     5 1
     7     1     3 1
     8     1    19 1
     9    20    19 1
    10    20     8 1
    11     9     8 1
    12     9    23 1
    13    13     5 2
    14     3    16 1
    15    19     2 2
    16     8    21 1
    17    23    10 1
    18    23    22 1
    19    10    24 2
    20     2    16 1
    21     2     7 1
    22    21    22 1
    23    22    11 2
    24    18     7 1
    25    24    11 1
    26     7    17 1
    27     1    25 1
    28     3    26 1
    29     4    27 1
    30     5    28 1
    31     6    29 1
    32     8    30 1
    33     9    44 1
    34     9    31 1
    35    10    32 1
    36    11    33 1
    37    12    34 1
    38    12    35 1
    39    12    36 1
    40    14    37 1
    41    15    38 1
    42    15    39 1
    43    15    40 1
    44    16    41 1
    45    21    42 1
    46    21    43 1
@<TRIPOS>SUBSTRUCTURE
     1 BMG         1 TEMP              0 ****  ****    0 ROOT
