@<TRIPOS>MOLECULE
BMG
   44    46     1     0     0
SMALL
bcc


@<TRIPOS>ATOM
      1 C1           0.0000     0.0000     0.0000 c3         1 BMG       0.035500
      2 C3           0.7480     0.0010     2.2050 ce         1 BMG       0.133800
      3 C5           1.5400     0.0000     0.0000 c3         1 BMG       0.141500
      4 C6           2.0720    -1.2570    -0.6900 c3         1 BMG      -0.220700
      5 C7           1.7260    -2.4690     0.1360 c          1 BMG       0.675900
      6 C8           3.5920    -1.1550    -0.8350 c3         1 BMG       0.204100
      7 C11          0.7540     0.0020     3.6150 c          1 BMG       0.906800
      8 C17         -2.5780     1.6300     1.5270 c3         1 BMG      -0.031600
      9 C18         -2.9290     1.6010     0.0240 c3         1 BMG      -0.012700
     10 C20         -5.3380     0.8930    -0.8240 cc         1 BMG       0.429900
     11 C22         -6.2350     1.2590     1.1070 cd         1 BMG       0.429900
     12 C9           3.9430     0.0750    -1.6730 c3         1 BMG      -0.039100
     13 O14          1.1450    -3.3990    -0.3700 o          1 BMG      -0.570100
     14 O15          4.1850    -1.0350     0.4600 oh         1 BMG      -0.590800
     15 C10         -0.5340    -1.2570    -0.6890 c3         1 BMG      -0.050100
     16 N4           1.9120     0.0000     1.4210 nu         1 BMG      -0.373000
     17 O13         -0.3920    -0.1050     4.2880 o          1 BMG      -0.837800
     18 O12          1.9070     0.1100     4.2760 o          1 BMG      -0.837800
     19 C2          -0.3800     0.0010     1.4630 c2         1 BMG      -0.251600
     20 S16         -2.0250     0.0030     2.0950 ss         1 BMG      -0.220700
     21 C24         -3.9280     2.0080     2.1750 c3         1 BMG      -0.012700
     22 N23         -4.9490     1.5430     1.2260 na         1 BMG       0.117300
     23 N19         -4.3670     1.3060    -0.0270 na         1 BMG       0.117300
     24 N21         -6.4630     0.8670    -0.1330 nd         1 BMG      -0.634000
     25 H1          -0.3750     0.8930    -0.4860 hc         1 BMG      -0.002300
     26 H5           1.9150     0.8920    -0.4860 h1         1 BMG       0.032700
     27 H6           1.6210    -1.3480    -1.6710 hc         1 BMG       0.070700
     28 H7           1.9930    -2.5030     1.1850 h4         1 BMG       0.001200
     29 H8           3.9690    -2.0460    -1.3230 h1         1 BMG       0.005700
     30 H17         -1.8320     2.3890     1.7300 h1         1 BMG       0.103700
     31 H18A        -2.3870     0.7910    -0.4480 h1         1 BMG       0.077200
     32 H20         -5.2300     0.6220    -1.8670 h5         1 BMG       0.055100
     33 H22         -6.9760     1.3340     1.8930 h5         1 BMG       0.055100
     34 H9           3.1680     0.2410    -2.4130 hc         1 BMG       0.014033
     35 H9A          4.0190     0.9420    -1.0290 hc         1 BMG       0.014033
     36 H9B          4.8900    -0.0880    -2.1730 hc         1 BMG       0.014033
     37 HO15         5.0790    -1.3330     0.4250 ho         1 BMG       0.401000
     38 H10          0.1080    -1.5120    -1.5240 hc         1 BMG       0.021367
     39 H10A        -1.5390    -1.0710    -1.0500 hc         1 BMG       0.021367
     40 H10B        -0.5510    -2.0770     0.0180 hc         1 BMG       0.021367
     41 HN4          2.8490     0.0000     1.7740 hn         1 BMG       0.352800
     42 H24         -4.0370     1.4630     3.1040 h1         1 BMG       0.077200
     43 H24A        -3.9890     3.0870     2.2560 h1         1 BMG       0.077200
     44 H18         -2.7570     2.5850    -0.3960 h1         1 BMG       0.077200
@<TRIPOS>BOND
     1     1     3 1   
     2     1    15 1   
     3     1    19 1   
     4     1    25 1   
     5     2     7 1   
     6     2    16 1   
     7     2    19 2   
     8     3     4 1   
     9     3    16 1   
    10     3    26 1   
    11     4     5 1   
    12     4     6 1   
    13     4    27 1   
    14     5    13 2   
    15     5    28 1   
    16     6    12 1   
    17     6    14 1   
    18     6    29 1   
    19     7    17 1   
    20     7    18 1   
    21     8     9 1   
    22     8    20 1   
    23     8    21 1   
    24     8    30 1   
    25     9    23 1   
    26     9    31 1   
    27     9    44 1   
    28    10    23 1   
    29    10    24 2   
    30    10    32 1   
    31    11    22 2   
    32    11    24 1   
    33    11    33 1   
    34    12    34 1   
    35    12    35 1   
    36    12    36 1   
    37    14    37 1   
    38    15    38 1   
    39    15    39 1   
    40    15    40 1   
    41    16    41 1   
    42    19    20 1   
    43    21    22 1   
    44    21    42 1   
    45    21    43 1   
    46    22    23 1   
@<TRIPOS>SUBSTRUCTURE
     1 BMG         1 TEMP              0 ****  ****    0 ROOT
