@<TRIPOS>MOLECULE
molecule
   46    48     1     0     0
SMALL
bcc


@<TRIPOS>ATOM
      1 O71          0.0000     0.0000     0.0000 o          1 BMH      -0.833800
      2 C7           1.2260     0.0000     0.0000 c          1 BMH       0.902600
      3 O72          1.8710     0.0350    -1.1430 o          1 BMH      -0.833800
      4 C6           2.0080     0.0000     1.2940 c3         1 BMH      -0.177700
      5 C61          3.5390     0.0590     1.1490 c3         1 BMH       0.171100
      6 O62          4.2410    -0.1980     2.3790 oh         1 BMH      -0.485800
      7 C62          4.0780     1.4100     0.7010 c3         1 BMH      -0.133100
      8 C5           1.5920    -1.1700     2.1970 c3         1 BMH       0.250500
      9 N4           2.3480    -0.9310     3.4350 nu         1 BMH      -0.895000
     10 C3           3.7090    -1.3010     3.1830 c2         1 BMH       0.346800
     11 C31          4.5260    -1.4500     4.4330 c3         1 BMH       0.490800
     12 O31          5.8400    -1.6100     4.2740 o          1 BMH      -0.831500
     13 O32          4.0270    -1.3840     5.5780 oh         1 BMH      -0.574800
     14 C1           2.1130    -2.5600     1.8140 c3         1 BMH      -0.031500
     15 C11          1.9030    -3.0100     0.3620 c3         1 BMH      -0.068100
     16 C2           3.5680    -2.5810     2.3180 c2         1 BMH      -0.194600
     17 S21          3.7510    -4.1760     3.2040 ss         1 BMH      -0.167700
     18 C22          5.4850    -4.6090     3.0560 c3         1 BMH      -0.064600
     19 C23          5.8460    -4.8930     1.6120 c3         1 BMH      -0.000200
     20 N24          6.2380    -6.2980     1.5800 na         1 BMH      -0.180200
     21 C25          5.6110    -7.2390     0.6560 cc         1 BMH       0.341900
     22 N28          6.1230    -6.9000     2.8540 na         1 BMH      -0.180200
     23 C27          5.6430    -5.9160     3.8340 c3         1 BMH      -0.000200
     24 C29          5.4620    -8.1810     2.6190 cd         1 BMH       0.341900
     25 N26          5.2360    -8.3640     1.3040 nc         1 BMH      -0.657000
     26 H6           1.7210     0.9040     1.8170 hc         1 BMH       0.044700
     27 H61          3.8400    -0.6860     0.4220 h1         1 BMH       0.103700
     28 H62          5.0370     0.3070     2.3980 ho         1 BMH       0.515000
     29 H621         5.1370     1.3240     0.4900 hc         1 BMH       0.053700
     30 H622         3.5560     1.7280    -0.1930 hc         1 BMH       0.053700
     31 H623         3.9250     2.1380     1.4880 hc         1 BMH       0.053700
     32 H5           0.5250    -1.1810     2.3860 h1         1 BMH       0.082700
     33 HN4          1.9810    -0.5750     4.2950 hn         1 BMH       0.450800
     34 H31          4.3710    -2.5220     4.4250 h2         1 BMH      -0.032300
     35 H32          4.5930    -0.8800     6.1390 ho         1 BMH       0.381000
     36 H1           1.5690    -3.2660     2.4300 hc         1 BMH       0.023700
     37 H111         0.9440    -2.6500     0.0080 hc         1 BMH       0.042700
     38 H112         2.6930    -2.6050    -0.2590 hc         1 BMH       0.042700
     39 H113         1.9230    -4.0920     0.3130 hc         1 BMH       0.042700
     40 H22          6.1210    -3.8360     3.4690 h1         1 BMH       0.145700
     41 H231         4.9630    -4.7620     0.9980 h1         1 BMH       0.081450
     42 H232         6.6990    -4.2850     1.3380 h1         1 BMH       0.081450
     43 H25          5.5420    -7.0960    -0.4160 h5         1 BMH       0.067600
     44 H271         6.4020    -5.7810     4.5950 h1         1 BMH       0.081450
     45 H272         4.6700    -6.2280     4.1960 h1         1 BMH       0.081450
     46 H29          5.2550    -8.9160     3.3870 h5         1 BMH       0.067600
@<TRIPOS>BOND
     1     1     2 1
     2     2     3 1
     3     2     4 1
     4     4     5 1
     5     4     8 1
     6     4    26 1
     7     5     6 1
     8     5     7 1
     9     5    27 1
    10     6    28 1
    11     7    29 1
    12     7    30 1
    13     7    31 1
    14     8     9 1
    15     8    14 1
    16     8    32 1
    17     9    10 1
    18     9    33 1
    19    10    11 1
    20    10    16 2
    21    11    12 1
    22    11    13 1
    23    11    34 1
    24    13    35 1
    25    14    15 1
    26    14    16 1
    27    14    36 1
    28    15    37 1
    29    15    38 1
    30    15    39 1
    31    16    17 1
    32    17    18 1
    33    18    19 1
    34    18    23 1
    35    18    40 1
    36    19    20 1
    37    19    41 1
    38    19    42 1
    39    20    21 2
    40    20    22 1
    41    21    25 1
    42    21    43 1
    43    22    23 1
    44    22    24 1
    45    23    44 1
    46    23    45 1
    47    24    25 2
    48    24    46 1
@<TRIPOS>SUBSTRUCTURE
     1 BMH         1 TEMP              0 ****  ****    0 ROOT
