@<TRIPOS>MOLECULE
BMI
   49    53     1     0     0
SMALL
bcc


@<TRIPOS>ATOM
      1 C           0.1400    0.9870    0.1980 c         1 BMI      0.723700
      2 O          -0.4200    1.2090   -0.9010 o         1 BMI     -0.683500
      3 N          -0.3040    0.4670    3.8890 nh        1 BMI     -0.745000
      4 N1          1.5510    0.9400    0.1590 n         1 BMI     -0.444100
      5 C1          0.2540    0.5900    2.6500 cc        1 BMI      0.339000
      6 C2          1.7000    0.5730    2.5170 cc        1 BMI     -0.305000
      7 C3          2.2840    0.7370    1.2920 cd        1 BMI      0.056600
      8 C4          0.4820    0.1930    5.0670 c3        1 BMI      0.160500
      9 C5         -2.0940    0.7560    7.8050 ca        1 BMI     -0.090000
     10 C6         -1.3120    0.9610    6.6660 ca        1 BMI     -0.230300
     11 C7         -1.9290   -0.4200    8.5350 ca        1 BMI     -0.235300
     12 C8         -0.3870   -0.0340    6.2900 ca        1 BMI      0.376600
     13 N2         -0.2180   -1.1830    6.9900 nb        1 BMI     -0.653000
     14 C9         -0.9770   -1.3550    8.0860 ca        1 BMI      0.398200
     15 C10        -0.5140    0.7810    1.4810 cd        1 BMI     -0.395800
     16 C11        -8.9280    0.5960    2.4570 cc        1 BMI     -0.249600
     17 C12        -6.4800    0.3090    1.9650 ca        1 BMI     -0.007200
     18 C13        -5.2830   -0.0730    2.5900 ca        1 BMI     -0.104000
     19 N3         -7.7130   -0.1010    2.5110 na        1 BMI     -0.133000
     20 C14        -7.9660   -1.2900    3.2230 cc        1 BMI      0.396400
     21 N4         -9.2550   -1.3660    3.6060 nd        1 BMI     -0.669000
     22 C15        -9.8640   -0.2000    3.1380 cd        1 BMI      0.288200
     23 C16        -4.0770    0.3420    2.0160 ca        1 BMI      0.099400
     24 N5         -2.7510    1.4450    0.5320 na        1 BMI     -0.253300
     25 C17        -1.9720    0.7520    1.4920 cd        1 BMI      0.536100
     26 N6         -2.7490    0.1050    2.4030 nc        1 BMI     -0.636100
     27 C18        -4.0870    1.1610    0.8190 ca        1 BMI     -0.088200
     28 C19        -5.2890    1.5420    0.2020 ca        1 BMI     -0.050300
     29 C20        -6.4710    1.1040    0.7850 ca        1 BMI     -0.139000
     30 C21        -5.2840    2.3730   -1.0210 c3        1 BMI     -0.054800
     31 HN         -1.2960    0.3810    3.9780 hn        1 BMI      0.479800
     32 HN1         1.9980    1.0550   -0.7250 hn        1 BMI      0.339500
     33 H2          2.3390    0.4230    3.3970 ha        1 BMI      0.157000
     34 H3          3.3840    0.7120    1.1690 h4        1 BMI      0.157000
     35 H41         1.1470   -0.7030    4.8860 h1        1 BMI      0.064700
     36 H42         1.1460    1.0820    5.2830 h1        1 BMI      0.064700
     37 H5         -2.8280    1.5130    8.1190 ha        1 BMI      0.145000
     38 H6         -1.4150    1.8800    6.0730 ha        1 BMI      0.151000
     39 H7         -2.5240   -0.6220    9.4350 ha        1 BMI      0.149000
     40 H9         -0.8120   -2.3020    8.6330 h4        1 BMI      0.027100
     41 H13        -5.2760   -0.6820    3.5060 ha        1 BMI      0.153000
     42 H14        -7.1900   -2.0400    3.4080 h5        1 BMI      0.064100
     43 H15       -10.9200   -0.0020    3.3130 h4        1 BMI      0.041100
     44 HN5        -2.4040    1.7890   -0.3320 hn        1 BMI      0.331700
     45 H20        -7.4270    1.3770    0.3100 ha        1 BMI      0.142000
     46 H211       -6.3180    2.5060   -1.4250 hc        1 BMI      0.048700
     47 H212       -4.6550    1.8950   -1.8140 hc        1 BMI      0.048700
     48 H213       -4.8590    3.3840   -0.8000 hc        1 BMI      0.048700
     49 H11        -9.0240    1.5640    1.9710 h4        1 BMI      0.178000
@<TRIPOS>BOND
     1    1    2 2
     2    1    4 1
     3    1   15 1
     4    3    5 1
     5    3    8 1
     6    3   31 1
     7    4    7 1
     8    4   32 1
     9    5    6 1
    10    5   15 2
    11    6    7 2
    12    6   33 1
    13    7   34 1
    14    8   12 1
    15    8   35 1
    16    8   36 1
    17    9   10 ar
    18    9   11 ar
    19    9   37 1
    20   10   12 ar
    21   10   38 1
    22   11   14 ar
    23   11   39 1
    24   12   13 ar
    25   13   14 ar
    26   14   40 1
    27   15   25 1
    28   16   19 1
    29   16   22 2
    30   16   49 1
    31   17   18 ar
    32   17   19 1
    33   17   29 ar
    34   18   23 ar
    35   18   41 1
    36   19   20 1
    37   20   21 2
    38   20   42 1
    39   21   22 1
    40   22   43 1
    41   23   26 1
    42   23   27 ar
    43   24   25 1
    44   24   27 1
    45   24   44 1
    46   25   26 2
    47   27   28 ar
    48   28   29 ar
    49   28   30 1
    50   29   45 1
    51   30   46 1
    52   30   47 1
    53   30   48 1
@<TRIPOS>SUBSTRUCTURE
     1 BMI         1 TEMP              0 ****  ****    0 ROOT
