@<TRIPOS>MOLECULE
molecule
   46    45     1     0     0
SMALL
bcc


@<TRIPOS>ATOM
      1 C10          0.0000     0.0000     0.0000 c3         1 BMJ      -0.083400
      2 C11          1.5300     0.0000     0.0000 c3         1 BMJ      -0.078400
      3 C12          2.0400     0.0000     1.4420 c3         1 BMJ      -0.074700
      4 C13          1.6350     1.3080     2.1260 c3         1 BMJ      -0.089100
      5 C14          3.5650    -0.1260     1.4440 c3         1 BMJ      -0.080400
      6 C15          4.0650    -0.2500     2.8850 c3         1 BMJ      -0.092100
      7 C01         -8.6630    -0.0020    -7.1890 c          1 BMJ       0.890600
      8 C02         -8.1600    -0.0020    -5.7690 c3         1 BMJ      -0.182400
      9 C03         -6.6310    -0.0020    -5.7690 c3         1 BMJ      -0.063400
     10 C04         -6.1210    -0.0020    -4.3270 c3         1 BMJ      -0.088400
     11 C05         -4.5910    -0.0020    -4.3270 c3         1 BMJ      -0.081400
     12 C06         -4.0810    -0.0010    -2.8850 c3         1 BMJ      -0.083400
     13 C07         -2.5500    -0.0010    -2.8850 c3         1 BMJ      -0.082400
     14 C08         -2.0400    -0.0010    -1.4420 c3         1 BMJ      -0.082400
     15 C09         -0.5100    -0.0010    -1.4420 c3         1 BMJ      -0.082400
     16 O01         -9.9820    -0.0030    -7.4350 o          1 BMJ      -0.858300
     17 O02         -7.8780    -0.0030    -8.1090 o          1 BMJ      -0.858300
     18 H1          -0.3610    -0.8840     0.5110 hc         1 BMJ       0.040700
     19 H2          -0.3610     0.8850     0.5100 hc         1 BMJ       0.040700
     20 H3           1.8910    -0.8840    -0.5110 hc         1 BMJ       0.041200
     21 H4           1.8910     0.8850    -0.5110 hc         1 BMJ       0.041200
     22 H5           1.6080    -0.8360     1.9780 hc         1 BMJ       0.049700
     23 H6           1.9860     2.1470     1.5370 hc         1 BMJ       0.033367
     24 H7           0.5560     1.3530     2.2100 hc         1 BMJ       0.033367
     25 H8           2.0770     1.3510     3.1140 hc         1 BMJ       0.033367
     26 H9           3.8550    -1.0060     0.8840 hc         1 BMJ       0.040200
     27 H10          4.0000     0.7540     0.9860 hc         1 BMJ       0.040200
     28 H11          3.3730    -0.8570     3.4560 hc         1 BMJ       0.031033
     29 H12          5.0430    -0.7170     2.8880 hc         1 BMJ       0.031033
     30 H13          4.1330     0.7350     3.3300 hc         1 BMJ       0.031033
     31 H14         -8.5210    -0.8860    -5.2580 hc         1 BMJ       0.026700
     32 H15         -8.5210     0.8830    -5.2580 hc         1 BMJ       0.026700
     33 H16         -6.2700    -0.8860    -6.2800 hc         1 BMJ       0.044700
     34 H17         -6.2700     0.8830    -6.2800 hc         1 BMJ       0.044700
     35 H18         -6.4820     0.8830    -3.8160 hc         1 BMJ       0.028700
     36 H19         -6.4820    -0.8860    -3.8160 hc         1 BMJ       0.028700
     37 H20         -4.2300    -0.8870    -4.8370 hc         1 BMJ       0.038700
     38 H21         -4.2300     0.8820    -4.8380 hc         1 BMJ       0.038700
     39 H22         -4.4420    -0.8850    -2.3730 hc         1 BMJ       0.035700
     40 H23         -4.4420     0.8840    -2.3740 hc         1 BMJ       0.035700
     41 H24         -2.1890    -0.8850    -3.3950 hc         1 BMJ       0.039700
     42 H25         -2.1890     0.8840    -3.3950 hc         1 BMJ       0.039700
     43 H26         -2.4010     0.8840    -0.9320 hc         1 BMJ       0.038700
     44 H27         -2.4010    -0.8850    -0.9320 hc         1 BMJ       0.038700
     45 H28         -0.1490     0.8830    -1.9530 hc         1 BMJ       0.039700
     46 H29         -0.1490    -0.8860    -1.9520 hc         1 BMJ       0.039700
@<TRIPOS>BOND
     1    17     7 1
     2     7    16 1
     3     7     8 1
     4     8     9 1
     5     9    10 1
     6    10    11 1
     7    11    12 1
     8    12    13 1
     9    13    14 1
    10    14    15 1
    11    15     1 1
    12     1     2 1
    13     2     3 1
    14     4     3 1
    15     3     5 1
    16     5     6 1
    17     1    18 1
    18     1    19 1
    19     2    20 1
    20     2    21 1
    21     3    22 1
    22     4    23 1
    23     4    24 1
    24     4    25 1
    25     5    26 1
    26     5    27 1
    27     6    28 1
    28     6    29 1
    29     6    30 1
    30     8    31 1
    31     8    32 1
    32     9    33 1
    33     9    34 1
    34    10    35 1
    35    10    36 1
    36    11    37 1
    37    11    38 1
    38    12    39 1
    39    12    40 1
    40    13    41 1
    41    13    42 1
    42    14    43 1
    43    14    44 1
    44    15    45 1
    45    15    46 1
@<TRIPOS>SUBSTRUCTURE
     1 BMJ         1 TEMP              0 ****  ****    0 ROOT
