@<TRIPOS>MOLECULE
BMK
   32    35     1     0     0
SMALL
bcc


@<TRIPOS>ATOM
      1 C7           1.5310     0.0000     0.0000 c3         1 BMK       0.011900
      2 C            0.0000     0.0000     0.0000 c3         1 BMK       0.226800
      3 C5          -0.6010     0.0000     1.3940 ca         1 BMK      -0.067300
      4 C10          0.1570    -0.4200     2.4670 ca         1 BMK      -0.099000
      5 C14         -0.3920    -0.4260     3.7370 ca         1 BMK      -0.107000
      6 C15         -1.6980    -0.0110     3.9220 ca         1 BMK      -0.098000
      7 C11         -2.4530     0.4100     2.8450 ca         1 BMK      -0.106000
      8 C6          -1.9030     0.4220     1.5720 ca         1 BMK      -0.056300
      9 C4          -2.7410     0.9000     0.4140 c3         1 BMK       0.049900
     10 C1          -1.9960     0.7110    -0.9090 c3         1 BMK       0.178800
     11 N           -0.5950     1.1830    -0.6960 n7         1 BMK      -0.567200
     12 C3          -1.8640    -0.7460    -1.2430 ca         1 BMK      -0.135300
     13 C9          -2.7100    -1.6000    -1.9240 ca         1 BMK      -0.068000
     14 C13         -2.2810    -2.9120    -2.0880 ca         1 BMK      -0.101000
     15 C12         -1.0680    -3.3460    -1.5970 ca         1 BMK      -0.100000
     16 C8          -0.2160    -2.4920    -0.9040 ca         1 BMK      -0.064000
     17 C2          -0.6000    -1.1880    -0.7150 ca         1 BMK      -0.120300
     18 H1           1.8920     0.0450    -1.0200 hc         1 BMK       0.013367
     19 H2           1.8920     0.8610     0.5490 hc         1 BMK       0.013367
     20 H3           1.8920    -0.9060     0.4710 hc         1 BMK       0.013367
     21 H4           1.1800    -0.7440     2.3160 ha         1 BMK       0.111000
     22 H5           0.1980    -0.7560     4.5840 ha         1 BMK       0.101000
     23 H6          -2.1310    -0.0140     4.9150 ha         1 BMK       0.100000
     24 H7          -3.4760     0.7340     2.9940 ha         1 BMK       0.104000
     25 H8          -2.9670     1.9510     0.5490 hc         1 BMK       0.025700
     26 H9          -3.6650     0.3360     0.3860 hc         1 BMK       0.025700
     27 H10         -2.4750     1.2570    -1.7130 h1         1 BMK       0.034700
     28 H11         -0.1470     1.3100    -1.5820 hn         1 BMK       0.260800
     29 H13         -3.6640    -1.2630    -2.3120 ha         1 BMK       0.109000
     30 H14         -2.9140    -3.6110    -2.6220 ha         1 BMK       0.100000
     31 H15         -0.7750    -4.3770    -1.7480 ha         1 BMK       0.102000
     32 H16          0.7330    -2.8490    -0.5250 ha         1 BMK       0.106000
@<TRIPOS>BOND
     1     1     2 1   
     2     1    18 1   
     3     1    19 1   
     4     1    20 1   
     5     2     3 1   
     6     2    11 1   
     7     2    17 1   
     8     3     4 ar  
     9     3     8 ar  
    10     4     5 ar  
    11     4    21 1   
    12     5     6 ar  
    13     5    22 1   
    14     6     7 ar  
    15     6    23 1   
    16     7     8 ar  
    17     7    24 1   
    18     8     9 1   
    19     9    10 1   
    20     9    25 1   
    21     9    26 1   
    22    10    11 1   
    23    10    12 1   
    24    10    27 1   
    25    11    28 1   
    26    12    13 ar  
    27    12    17 ar  
    28    13    14 ar  
    29    13    29 1   
    30    14    15 ar  
    31    14    30 1   
    32    15    16 ar  
    33    15    31 1   
    34    16    17 ar  
    35    16    32 1   
@<TRIPOS>SUBSTRUCTURE
     1 BMK         1 TEMP              0 ****  ****    0 ROOT
