@<TRIPOS>MOLECULE
BML
   13    13     1     0     0
SMALL
bcc


@<TRIPOS>ATOM
      1 O1         -0.0010   -0.1760    0.2240 oh        1 BML     -0.493100
      2 C1          1.3660   -0.1180    0.1000 ca        1 BML      0.138100
      3 C2          2.0980    0.0130    1.2930 ca        1 BML     -0.187000
      4 C3          3.4850    0.0770    1.2320 ca        1 BML     -0.066000
      5 C4          4.1460    0.0120   -0.0010 ca        1 BML     -0.064900
      6 C5          3.4100   -0.1180   -1.1810 ca        1 BML     -0.066000
      7 C6          2.0190   -0.1830   -1.1380 ca        1 BML     -0.187000
      8 BR4         6.0140    0.1000   -0.0660 br        1 BML     -0.088100
      9 HO1        -0.3790   -0.2650   -0.6640 ho        1 BML      0.422000
     10 H2          1.5670    0.0630    2.2540 ha        1 BML      0.147500
     11 H3          4.0600    0.1800    2.1670 ha        1 BML      0.148500
     12 H5          3.9220   -0.1700   -2.1550 ha        1 BML      0.148500
     13 H6          1.4410   -0.2860   -2.0670 ha        1 BML      0.147500
@<TRIPOS>BOND
     1    1    2 1   
     2    1    9 1   
     3    2    3 ar  
     4    2    7 ar  
     5    3    4 ar  
     6    3   10 1   
     7    4    5 ar  
     8    4   11 1   
     9    5    6 ar  
    10    5    8 1   
    11    6    7 ar  
    12    6   12 1   
    13    7   13 1   
@<TRIPOS>SUBSTRUCTURE
     1 BML         1 TEMP              0 ****  ****    0 ROOT
