@<TRIPOS>MOLECULE
molecule
   13    13     1     0     0
SMALL
bcc


@<TRIPOS>ATOM
      1 O1           0.0000     0.0000     0.0000 oh         1 BML      -0.521100
      2 C1           1.3600     0.0000     0.0000 ca         1 BML       0.117100
      3 C2           2.0540     0.0000     1.2000 ca         1 BML      -0.152000
      4 C3           3.4350    -0.0050     1.1980 ca         1 BML      -0.090000
      5 C4           4.1250     0.0010     0.0000 ca         1 BML      -0.028900
      6 C5           3.4350     0.0060    -1.1980 ca         1 BML      -0.090000
      7 C6           2.0540     0.0060    -1.2000 ca         1 BML      -0.152000
      8 Br4          6.0160     0.0030     0.0000 br         1 BML      -0.094100
      9 HO1         -0.3140    -0.8890    -0.0030 ho         1 BML       0.423000
     10 H2           1.5130    -0.0050     2.1390 ha         1 BML       0.147000
     11 H3           3.9780    -0.0070     2.1350 ha         1 BML       0.147000
     12 H5           3.9780     0.0110    -2.1350 ha         1 BML       0.147000
     13 H6           1.5130     0.0100    -2.1390 ha         1 BML       0.147000
@<TRIPOS>BOND
     1     1     2 1
     2     1     9 1
     3     2     3 ar
     4     2     7 ar
     5     3     4 ar
     6     3    10 1
     7     4     5 ar
     8     4    11 1
     9     5     6 ar
    10     5     8 1
    11     6     7 ar
    12     6    12 1
    13     7    13 1
@<TRIPOS>SUBSTRUCTURE
     1 BML         1 TEMP              0 ****  ****    0 ROOT
