@<TRIPOS>MOLECULE
molecule
    5     4     1     0     0
SMALL
bcc


@<TRIPOS>ATOM
      1 C1           0.0000     0.0000     0.0000 c3         1 BMM      -0.022700
      2 Br           1.9350     0.0000     0.0000 br         1 BMM      -0.172400
      3 H11         -0.3610     0.0000     1.0210 h1         1 BMM       0.064700
      4 H12         -0.3610    -0.8850    -0.5110 h1         1 BMM       0.064700
      5 H13         -0.3610     0.8850    -0.5110 h1         1 BMM       0.064700
@<TRIPOS>BOND
     1     1     2 1
     2     1     3 1
     3     1     4 1
     4     1     5 1
@<TRIPOS>SUBSTRUCTURE
     1 BMM         1 TEMP              0 ****  ****    0 ROOT
