@<TRIPOS>MOLECULE
BMM
    5     4     1     0     0
SMALL
bcc


@<TRIPOS>ATOM
      1 C1          0.0040    0.0000   -0.0000 c3        1 BMM     -0.039700
      2 BR          1.9090   -0.0000   -0.0000 br        1 BMM     -0.166400
      3 H11        -0.3540   -0.0000    1.0510 h1        1 BMM      0.068700
      4 H12        -0.3530   -0.9100   -0.5260 h1        1 BMM      0.068700
      5 H13        -0.3530    0.9100   -0.5260 h1        1 BMM      0.068700
@<TRIPOS>BOND
     1    1    2 1   
     2    1    3 1   
     3    1    4 1   
     4    1    5 1   
@<TRIPOS>SUBSTRUCTURE
     1 BMM         1 TEMP              0 ****  ****    0 ROOT
