@<TRIPOS>MOLECULE
molecule
   68    73     1     0     0
SMALL
bcc


@<TRIPOS>ATOM
      1 N17          0.0000     0.0000     0.0000 n7         1 BMO      -0.821200
      2 C19          1.4370     0.0000     0.0000 c3         1 BMO       0.165800
      3 C36          2.0230     0.0000     1.4100 c3         1 BMO      -0.102400
      4 C22          3.5490    -0.0250     1.4430 c3         1 BMO       0.224300
      5 N20          4.1300     1.0850     0.7640 nu         1 BMO      -0.799600
      6 C21          5.3610     0.9920     0.0610 ca         1 BMO       0.269100
      7 C27          6.2470    -0.0520     0.3480 ca         1 BMO      -0.219300
      8 C26          5.9540    -1.0230     1.3220 ca         1 BMO      -0.110750
      9 C25          6.8570    -2.0500     1.5840 ca         1 BMO      -0.155000
     10 C24          8.0500    -2.1080     0.8780 ca         1 BMO      -0.101750
     11 C23          8.3370    -1.1410    -0.0890 ca         1 BMO      -0.192550
     12 C28          7.4520    -0.1050    -0.3710 ca         1 BMO       0.472350
     13 N29          7.7610     0.8100    -1.3110 nb         1 BMO      -0.728500
     14 C31          6.9040     1.8130    -1.5840 ca         1 BMO       0.472350
     15 C30          5.6760     1.9440    -0.9140 ca         1 BMO      -0.219300
     16 C34          4.8060     3.0040    -1.2220 ca         1 BMO      -0.110750
     17 C35          5.1490     3.9350    -2.1980 ca         1 BMO      -0.155000
     18 C32          6.3610     3.8120    -2.8650 ca         1 BMO      -0.101750
     19 C33          7.2250     2.7590    -2.5560 ca         1 BMO      -0.192550
     20 C1          -0.5400     0.0110    -1.3610 c3         1 BMO       0.165800
     21 C2          -2.0670     0.0500    -1.3850 c3         1 BMO      -0.102400
     22 C3          -2.6640     1.2640    -0.6780 c3         1 BMO       0.224300
     23 N1          -2.2160     2.5080    -1.2420 nu         1 BMO      -0.799600
     24 C4          -2.0170     3.6670    -0.5030 ca         1 BMO       0.269100
     25 C5          -2.6270     3.8340     0.7630 ca         1 BMO      -0.219300
     26 C6          -3.4490     2.8280     1.3000 ca         1 BMO      -0.110750
     27 C7          -4.0460     2.9990     2.5450 ca         1 BMO      -0.155000
     28 C8          -3.8250     4.1720     3.2560 ca         1 BMO      -0.101750
     29 C9          -3.0080     5.1690     2.7180 ca         1 BMO      -0.192550
     30 C10         -2.3980     5.0240     1.4750 ca         1 BMO       0.472350
     31 N2          -1.6160     6.0060     0.9870 nb         1 BMO      -0.728500
     32 C11         -1.0260     5.8650    -0.2160 ca         1 BMO       0.472350
     33 C12         -0.2160     6.8800    -0.7190 ca         1 BMO      -0.192550
     34 C13          0.4110     6.7700    -1.9620 ca         1 BMO      -0.101750
     35 C14          0.2350     5.6250    -2.7290 ca         1 BMO      -0.155000
     36 C15         -0.5690     4.5960    -2.2490 ca         1 BMO      -0.110750
     37 C16         -1.1990     4.7100    -0.9970 ca         1 BMO      -0.219300
     38 H171        -0.3340    -0.8100     0.4850 hn         1 BMO       0.351800
     39 H191         1.7870    -0.8810    -0.5240 h1         1 BMO       0.033950
     40 H192         1.7870     0.8810    -0.5240 h1         1 BMO       0.033950
     41 H361         1.6520    -0.8700     1.9380 hc         1 BMO       0.052450
     42 H362         1.6810     0.8890     1.9260 hc         1 BMO       0.052450
     43 H221         3.8770    -0.0130     2.4760 h1         1 BMO       0.057200
     44 H222         3.8940    -0.9400     0.9770 h1         1 BMO       0.057200
     45 HN20         3.6530     1.9640     0.7850 hn         1 BMO       0.440800
     46 H26          5.0220    -0.9720     1.8700 ha         1 BMO       0.135750
     47 H25          6.6300    -2.7970     2.3350 ha         1 BMO       0.130750
     48 H24          8.7590    -2.9040     1.0750 ha         1 BMO       0.133000
     49 H23          9.2720    -1.2000    -0.6330 ha         1 BMO       0.146750
     50 H34          3.8620     3.0950    -0.6990 ha         1 BMO       0.135750
     51 H35          4.4760     4.7500    -2.4350 ha         1 BMO       0.130750
     52 H32          6.6370     4.5330    -3.6260 ha         1 BMO       0.133000
     53 H33          8.1670     2.6750    -3.0840 ha         1 BMO       0.146750
     54 H11         -0.2040    -0.8800    -1.8780 h1         1 BMO       0.033950
     55 H12A        -0.1600     0.8820    -1.8810 h1         1 BMO       0.033950
     56 H21         -2.3960     0.0550    -2.4170 hc         1 BMO       0.052450
     57 H22         -2.4420    -0.8470    -0.9070 hc         1 BMO       0.052450
     58 H31         -2.3830     1.2320     0.3680 h1         1 BMO       0.057200
     59 H32A        -3.7440     1.2150    -0.7530 h1         1 BMO       0.057200
     60 HN1         -2.0370     2.5410    -2.2260 hn         1 BMO       0.440800
     61 H6          -3.6180     1.9150     0.7420 ha         1 BMO       0.135750
     62 H7          -4.6780     2.2220     2.9580 ha         1 BMO       0.130750
     63 H8          -4.2850     4.3140     4.2260 ha         1 BMO       0.133000
     64 H9          -2.8440     6.0790     3.2820 ha         1 BMO       0.146750
     65 H12         -0.0700     7.7790    -0.1320 ha         1 BMO       0.146750
     66 H13          1.0350     7.5770    -2.3270 ha         1 BMO       0.133000
     67 H14          0.7190     5.5340    -3.6930 ha         1 BMO       0.130750
     68 H15         -0.7100     3.7010    -2.8420 ha         1 BMO       0.135750
@<TRIPOS>BOND
     1     1     2 1
     2     1    20 1
     3     1    38 1
     4     2     3 1
     5     2    39 1
     6     2    40 1
     7     3     4 1
     8     3    41 1
     9     3    42 1
    10     4     5 1
    11     4    43 1
    12     4    44 1
    13     5     6 1
    14     5    45 1
    15     6     7 ar
    16     6    15 ar
    17     7     8 ar
    18     7    12 ar
    19     8     9 ar
    20     8    46 1
    21     9    10 ar
    22     9    47 1
    23    10    11 ar
    24    10    48 1
    25    11    12 ar
    26    11    49 1
    27    12    13 ar
    28    13    14 ar
    29    14    15 ar
    30    14    19 ar
    31    15    16 ar
    32    16    17 ar
    33    16    50 1
    34    17    18 ar
    35    17    51 1
    36    18    19 ar
    37    18    52 1
    38    19    53 1
    39    20    21 1
    40    20    54 1
    41    20    55 1
    42    21    22 1
    43    21    56 1
    44    21    57 1
    45    22    23 1
    46    22    58 1
    47    22    59 1
    48    23    24 1
    49    23    60 1
    50    24    25 ar
    51    24    37 ar
    52    25    26 ar
    53    25    30 ar
    54    26    27 ar
    55    26    61 1
    56    27    28 ar
    57    27    62 1
    58    28    29 ar
    59    28    63 1
    60    29    30 ar
    61    29    64 1
    62    30    31 ar
    63    31    32 ar
    64    32    33 ar
    65    32    37 ar
    66    33    34 ar
    67    33    65 1
    68    34    35 ar
    69    34    66 1
    70    35    36 ar
    71    35    67 1
    72    36    37 ar
    73    36    68 1
@<TRIPOS>SUBSTRUCTURE
     1 BMO         1 TEMP              0 ****  ****    0 ROOT
