@<TRIPOS>MOLECULE
molecule
   59    63     1     0     0
SMALL
bcc


@<TRIPOS>ATOM
      1 C5           0.0000     0.0000     0.0000 ca         1 BMS       0.010600
      2 C6           1.3910     0.0000     0.0000 ca         1 BMS      -0.170000
      3 C7           2.0800     0.0000     1.1910 ca         1 BMS      -0.088500
      4 C2           1.3820    -0.0010     2.4020 ca         1 BMS      -0.110600
      5 C3          -0.0150    -0.0010     2.3980 ca         1 BMS      -0.088500
      6 C4          -0.6990     0.0050     1.2030 ca         1 BMS      -0.170000
      7 C1           2.1180    -0.0010     3.6790 c          1 BMS       0.882200
      8 O1           1.4440    -0.0030     4.8450 o          1 BMS      -0.838800
      9 O2           3.3340    -0.0020     3.6800 o          1 BMS      -0.838800
     10 N1          -0.6960    -0.0010    -1.2070 ns         1 BMS      -0.461100
     11 C8          -0.1900     0.6460    -2.2760 c          1 BMS       0.662700
     12 C9          -0.8640     0.5450    -3.5870 ca         1 BMS      -0.137600
     13 C10         -0.3470     1.2110    -4.6950 ca         1 BMS      -0.064000
     14 C11         -0.9760     1.1190    -5.9270 ca         1 BMS      -0.090300
     15 C12         -2.1200     0.3620    -6.0570 ca         1 BMS      -0.050300
     16 C13         -2.6400    -0.3040    -4.9530 ca         1 BMS      -0.141000
     17 C14         -2.0260    -0.2180    -3.7250 ca         1 BMS      -0.106000
     18 O3           0.8190     1.3120    -2.1610 o          1 BMS      -0.589100
     19 C15         -0.3650     1.8690    -7.0820 c3         1 BMS       0.029900
     20 C16         -0.8940     1.3350    -8.4100 c3         1 BMS      -0.077400
     21 C17         -2.4260     1.3080    -8.3440 c3         1 BMS      -0.069400
     22 C18         -2.8470     0.2120    -7.3680 c3         1 BMS      -0.022700
     23 C19         -4.3540     0.3040    -7.1230 c3         1 BMS      -0.081100
     24 C20         -2.5170    -1.1550    -7.9740 c3         1 BMS      -0.081100
     25 C21          1.1320     1.7070    -7.0420 ca         1 BMS      -0.206600
     26 C22          1.6980     0.4390    -7.1470 ca         1 BMS       0.443200
     27 N2           2.9960     0.2590    -7.1170 nb         1 BMS      -0.677000
     28 C23          3.8380     1.2890    -6.9840 ca         1 BMS       0.417600
     29 C24          3.3280     2.6060    -6.8710 ca         1 BMS      -0.150300
     30 C25          1.9340     2.8040    -6.9080 ca         1 BMS      -0.075000
     31 C26          5.2290     1.0910    -6.9520 ca         1 BMS      -0.160300
     32 C27          6.0610     2.1590    -6.8150 ca         1 BMS      -0.121000
     33 C28          5.5580     3.4520    -6.7040 ca         1 BMS      -0.127000
     34 C29          4.2160     3.6840    -6.7300 ca         1 BMS      -0.108000
     35 H6           1.9320    -0.0020    -0.9380 ha         1 BMS       0.119500
     36 H7           3.1640     0.0000     1.1900 ha         1 BMS       0.152500
     37 H3          -0.5590     0.0000     3.3350 ha         1 BMS       0.152500
     38 H4          -1.7820     0.0050     1.2000 ha         1 BMS       0.119500
     39 H           -1.5880    -0.4500    -1.2690 hn         1 BMS       0.310500
     40 H10          0.5470     1.8150    -4.5900 ha         1 BMS       0.165000
     41 H13         -3.5410    -0.8960    -5.0600 ha         1 BMS       0.130000
     42 H14         -2.5040    -0.6400    -2.8490 ha         1 BMS       0.130000
     43 H15         -0.6180     2.9190    -6.9950 hc         1 BMS       0.064700
     44 H161        -0.5770     1.9860    -9.2160 hc         1 BMS       0.048200
     45 H162        -0.5190     0.3320    -8.5750 hc         1 BMS       0.048200
     46 H171        -2.7810     2.2630    -7.9760 hc         1 BMS       0.046700
     47 H172        -2.8170     1.0740    -9.3270 hc         1 BMS       0.046700
     48 H191        -4.8660     0.4290    -8.0690 hc         1 BMS       0.037033
     49 H192        -4.6970    -0.6050    -6.6440 hc         1 BMS       0.037033
     50 H193        -4.5640     1.1520    -6.4830 hc         1 BMS       0.037033
     51 H201        -2.5470    -1.0880    -9.0540 hc         1 BMS       0.037033
     52 H202        -1.5270    -1.4600    -7.6580 hc         1 BMS       0.037033
     53 H203        -3.2440    -1.8840    -7.6370 hc         1 BMS       0.037033
     54 H22          1.0490    -0.4210    -7.2570 h4         1 BMS       0.026100
     55 H25          1.5320     3.7940    -7.0850 ha         1 BMS       0.138000
     56 H26          5.6370     0.0910    -7.0370 ha         1 BMS       0.147000
     57 H27          7.1320     2.0000    -6.7920 ha         1 BMS       0.130000
     58 H28          6.2430     4.2840    -6.5960 ha         1 BMS       0.128000
     59 H29          3.8370     4.6950    -6.6430 ha         1 BMS       0.132000
@<TRIPOS>BOND
     1     1     2 ar
     2     1     6 ar
     3     1    10 1
     4     2     3 ar
     5     2    35 1
     6     3     4 ar
     7     3    36 1
     8     4     5 ar
     9     4     7 1
    10     5     6 ar
    11     5    37 1
    12     6    38 1
    13     7     8 1
    14     7     9 1
    15    10    11 1
    16    10    39 1
    17    11    12 1
    18    11    18 2
    19    12    13 ar
    20    12    17 ar
    21    13    14 ar
    22    13    40 1
    23    14    15 ar
    24    14    19 1
    25    15    16 ar
    26    15    22 1
    27    16    17 ar
    28    16    41 1
    29    17    42 1
    30    19    20 1
    31    19    25 1
    32    19    43 1
    33    20    21 1
    34    20    44 1
    35    20    45 1
    36    21    22 1
    37    21    46 1
    38    21    47 1
    39    22    23 1
    40    22    24 1
    41    23    48 1
    42    23    49 1
    43    23    50 1
    44    24    51 1
    45    24    52 1
    46    24    53 1
    47    25    26 ar
    48    25    30 ar
    49    26    27 ar
    50    26    54 1
    51    27    28 ar
    52    28    29 ar
    53    28    31 ar
    54    29    30 ar
    55    29    34 ar
    56    30    55 1
    57    31    32 ar
    58    31    56 1
    59    32    33 ar
    60    32    57 1
    61    33    34 ar
    62    33    58 1
    63    34    59 1
@<TRIPOS>SUBSTRUCTURE
     1 BMS         1 TEMP              0 ****  ****    0 ROOT
