@<TRIPOS>MOLECULE
molecule
   40    41     1     0     0
SMALL
bcc


@<TRIPOS>ATOM
      1 C1           0.0000     0.0000     0.0000 c          1 BMU       0.790100
      2 O1           1.2150     0.0000     0.0000 o          1 BMU      -0.617100
      3 N2          -0.6740     0.0000     1.1670 ns         1 BMU      -0.489100
      4 C3           0.0210    -0.1200     2.3770 ca         1 BMU       0.073600
      5 C4          -0.4470     0.5250     3.5150 ca         1 BMU      -0.137000
      6 C5           0.2400     0.4060     4.7060 ca         1 BMU      -0.103500
      7 C6           1.3940    -0.3560     4.7680 ca         1 BMU       0.012400
      8 Cl6          2.2550    -0.5030     6.2670 cl         1 BMU      -0.109400
      9 C7           1.8610    -1.0000     3.6360 ca         1 BMU      -0.103500
     10 C8           1.1740    -0.8870     2.4430 ca         1 BMU      -0.137000
     11 N9          -0.6740    -0.0000    -1.1660 ns         1 BMU      -0.467100
     12 C10          0.0240     0.0000    -2.3740 cc         1 BMU       0.068300
     13 C14          1.3760    -0.0000    -2.5210 cd         1 BMU      -0.344300
     14 C13          1.6570     0.0020    -3.8900 cd         1 BMU       0.361600
     15 N12          0.5250    -0.0040    -4.5430 nc         1 BMU      -0.509800
     16 N11         -0.5220    -0.0080    -3.6120 na         1 BMU       0.034400
     17 C15         -1.9540    -0.0140    -3.9230 c3         1 BMU       0.062600
     18 C17          2.9050     0.0060    -6.0330 c3         1 BMU      -0.080100
     19 C18          3.7870     1.2590    -4.0610 c3         1 BMU      -0.080100
     20 C19          3.7980    -1.2390    -4.0600 c3         1 BMU      -0.080100
     21 C16          3.0310     0.0070    -4.5090 c3         1 BMU      -0.083300
     22 H2          -1.6740     0.0440     1.1670 hn         1 BMU       0.319500
     23 H4          -1.3500     1.1220     3.4670 ha         1 BMU       0.152500
     24 H5          -0.1250     0.9080     5.5930 ha         1 BMU       0.147500
     25 H7           2.7630    -1.5970     3.6870 ha         1 BMU       0.147500
     26 H8           1.5410    -1.3920     1.5570 ha         1 BMU       0.152500
     27 H9          -1.6740     0.0370    -1.1660 hn         1 BMU       0.315500
     28 H14          2.1060     0.0030    -1.7200 ha         1 BMU       0.199000
     29 H151        -2.0890    -0.0300    -4.9980 h1         1 BMU       0.050700
     30 H152        -2.4140    -0.8930    -3.4880 h1         1 BMU       0.050700
     31 H153        -2.4160     0.8760    -3.5140 h1         1 BMU       0.050700
     32 H171         2.3690    -0.8810    -6.3500 hc         1 BMU       0.039033
     33 H172         2.3620     0.8880    -6.3510 hc         1 BMU       0.039033
     34 H173         3.8920     0.0100    -6.4780 hc         1 BMU       0.039033
     35 H181         4.6820     1.3750    -4.6610 hc         1 BMU       0.039033
     36 H182         3.1530     2.1280    -4.1870 hc         1 BMU       0.039033
     37 H183         4.0630     1.1620    -3.0180 hc         1 BMU       0.039033
     38 H191         4.0730    -1.1370    -3.0170 hc         1 BMU       0.039033
     39 H192         3.1700    -2.1130    -4.1840 hc         1 BMU       0.039033
     40 H193         4.6930    -1.3480    -4.6600 hc         1 BMU       0.039033
@<TRIPOS>BOND
     1     1     2 2
     2     1     3 1
     3     1    11 1
     4     3     4 1
     5     3    22 1
     6     4     5 ar
     7     4    10 ar
     8     5     6 ar
     9     5    23 1
    10     6     7 ar
    11     6    24 1
    12     7     8 1
    13     7     9 ar
    14     9    10 ar
    15     9    25 1
    16    10    26 1
    17    11    12 1
    18    11    27 1
    19    12    13 2
    20    12    16 1
    21    13    14 1
    22    13    28 1
    23    14    15 2
    24    14    21 1
    25    15    16 1
    26    16    17 1
    27    17    29 1
    28    17    30 1
    29    17    31 1
    30    18    21 1
    31    18    32 1
    32    18    33 1
    33    18    34 1
    34    19    21 1
    35    19    35 1
    36    19    36 1
    37    19    37 1
    38    20    21 1
    39    20    38 1
    40    20    39 1
    41    20    40 1
@<TRIPOS>SUBSTRUCTURE
     1 BMU         1 TEMP              0 ****  ****    0 ROOT
