@<TRIPOS>MOLECULE
BMV
   57    61     1     0     0
SMALL
bcc


@<TRIPOS>ATOM
      1 CAJ          0.0000     0.0000     0.0000 ca         1 BMV      -0.095500
      2 CAF          1.3820     0.0000     0.0000 ca         1 BMV      -0.084000
      3 CAE          2.0720     0.0000     1.1960 ca         1 BMV      -0.097000
      4 CAG          1.3810     0.0030     2.3940 ca         1 BMV      -0.084000
      5 CAK         -0.0010     0.0090     2.3940 ca         1 BMV      -0.095500
      6 CAZ         -0.6920     0.0020     1.1960 ca         1 BMV      -0.076300
      7 CAR         -2.1980     0.0030     1.1960 c3         1 BMV       0.012900
      8 CBE         -2.7100    -1.4380     1.1970 c3         1 BMV       0.220500
      9 CAU         -4.2550    -1.4440     1.1980 c3         1 BMV       0.052800
     10 NBF         -4.7370    -2.8220     1.1550 nh         1 BMV      -0.305000
     11 CAS         -6.0720    -2.7830     0.5430 c3         1 BMV       0.111500
     12 CBA         -5.9840    -2.1310    -0.8130 cc         1 BMV       0.280600
     13 CAP         -7.0110    -1.9250    -1.6590 cd         1 BMV      -0.436600
     14 NAV         -6.4940    -1.3100    -2.7660 na         1 BMV       0.259100
     15 CAO         -5.1680    -1.1600    -2.5570 cd         1 BMV       0.208400
     16 NAW         -4.8720    -1.6500    -1.3840 nc         1 BMV      -0.602000
     17 CBD         -4.8980    -3.3610     2.4350 ca         1 BMV       0.055600
     18 CAN         -5.9030    -4.3440     2.5190 ca         1 BMV      -0.194000
     19 CAM         -6.1090    -5.0540     3.6720 ca         1 BMV      -0.040000
     20 CAY         -5.3160    -4.8080     4.7960 ca         1 BMV      -0.012000
     21 CAD         -5.5060    -5.5610     5.9980 cg         1 BMV       0.243800
     22 NAA         -5.6730    -6.1690     6.9440 n1         1 BMV      -0.394800
     23 CAQ         -4.3370    -3.8150     4.7280 ca         1 BMV      -0.021000
     24 CBB         -4.1490    -3.0930     3.5670 ca         1 BMV      -0.155300
     25 CAT         -3.1140    -2.0030     3.5750 c3         1 BMV       0.276100
     26 NBG         -2.2610    -2.1220     2.3900 n3         1 BMV      -0.508500
     27 SBH         -0.8500    -2.9890     2.4150 sy         1 BMV       1.081200
     28 OAB         -0.0590    -2.4710     1.3540 o          1 BMV      -0.570300
     29 OAC         -0.4580    -3.0470     3.7800 o          1 BMV      -0.570300
     30 CBC         -1.2400    -4.6430     1.9580 cc         1 BMV      -0.006600
     31 CAL         -1.2690    -5.2040     0.7240 cd         1 BMV      -0.003000
     32 CAH         -1.6030    -6.5400     0.6020 cd         1 BMV      -0.186000
     33 CAI         -1.9040    -7.2460     1.7180 cc         1 BMV       0.078900
     34 SAX         -1.7090    -6.0170     2.9980 ss         1 BMV      -0.253800
     35 HAJ         -0.5410    -0.0030    -0.9380 ha         1 BMV       0.099000
     36 HAF          1.9240    -0.0020    -0.9380 ha         1 BMV       0.096000
     37 HAE          3.1560    -0.0020     1.1960 ha         1 BMV       0.095000
     38 HAG          1.9230     0.0060     3.3320 ha         1 BMV       0.096000
     39 HAK         -0.5430     0.0110     3.3320 ha         1 BMV       0.099000
     40 HAR1        -2.5590     0.5130     0.3100 hc         1 BMV       0.020700
     41 HAR2        -2.5590     0.5160     2.0790 hc         1 BMV       0.020700
     42 HBE         -2.3450    -1.9610     0.3210 h1         1 BMV       0.059700
     43 HAU1        -4.6060    -0.9240     0.3140 h1         1 BMV       0.056200
     44 HAU2        -4.6060    -0.9800     2.1120 h1         1 BMV       0.056200
     45 HAS1        -6.7430    -2.2140     1.1740 h1         1 BMV       0.030200
     46 HAS2        -6.4490    -3.7930     0.4340 h1         1 BMV       0.030200
     47 HAP         -8.0470    -2.1950    -1.4960 h4         1 BMV       0.156000
     48 HAV         -7.0030    -1.0250    -3.5800 hn         1 BMV       0.123700
     49 HAO         -4.4670    -0.7050    -3.2460 h5         1 BMV       0.027100
     50 HAN         -6.5230    -4.5440     1.6540 ha         1 BMV       0.133000
     51 HAM         -6.8730    -5.8220     3.7060 ha         1 BMV       0.108000
     52 HAQ         -3.7150    -3.6140     5.5930 ha         1 BMV       0.121000
     53 HAT1        -3.6080    -1.0390     3.5670 h1         1 BMV       0.039700
     54 HAT2        -2.5050    -2.0930     4.4670 h1         1 BMV       0.039700
     55 HAL         -1.0250    -4.6160    -0.1520 ha         1 BMV       0.124000
     56 HAH         -1.6310    -7.0130    -0.3720 ha         1 BMV       0.117000
     57 HAI         -2.1870    -8.2880     1.8110 h4         1 BMV       0.159000
@<TRIPOS>BOND
     1     1     2 ar  
     2     1     6 ar  
     3     1    35 1   
     4     2     3 ar  
     5     2    36 1   
     6     3     4 ar  
     7     3    37 1   
     8     4     5 ar  
     9     4    38 1   
    10     5     6 ar  
    11     5    39 1   
    12     6     7 1   
    13     7     8 1   
    14     7    40 1   
    15     7    41 1   
    16     8     9 1   
    17     8    26 1   
    18     8    42 1   
    19     9    10 1   
    20     9    43 1   
    21     9    44 1   
    22    10    11 1   
    23    10    17 1   
    24    11    12 1   
    25    11    45 1   
    26    11    46 1   
    27    12    13 2   
    28    12    16 1   
    29    13    14 1   
    30    13    47 1   
    31    14    15 1   
    32    14    48 1   
    33    15    16 2   
    34    15    49 1   
    35    17    18 ar  
    36    17    24 ar  
    37    18    19 ar  
    38    18    50 1   
    39    19    20 ar  
    40    19    51 1   
    41    20    21 1   
    42    20    23 ar  
    43    21    22 3   
    44    23    24 ar  
    45    23    52 1   
    46    24    25 1   
    47    25    26 1   
    48    25    53 1   
    49    25    54 1   
    50    26    27 1   
    51    27    28 2   
    52    27    29 2   
    53    27    30 1   
    54    30    31 2   
    55    30    34 1   
    56    31    32 1   
    57    31    55 1   
    58    32    33 2   
    59    32    56 1   
    60    33    34 1   
    61    33    57 1   
@<TRIPOS>SUBSTRUCTURE
     1 BMV         1 TEMP              0 ****  ****    0 ROOT
