@<TRIPOS>MOLECULE
BMW
   53    58     1     0     0
SMALL
bcc


@<TRIPOS>ATOM
      1 C1           0.0000     0.0000     0.0000 ca         1 BMW      -0.098000
      2 C2           1.3970     0.0000     0.0000 ca         1 BMW       0.096400
      3 N3           2.3320     0.0000     0.9860 nc         1 BMW      -0.521100
      4 C5           3.5210     0.0010     0.4600 cd         1 BMW       0.248700
      5 N6           3.4340    -0.0010    -0.8970 na         1 BMW       0.253700
      6 C7           2.0900    -0.0000    -1.2220 ca         1 BMW      -0.299200
      7 C8           1.3880    -0.0010    -2.4190 ca         1 BMW      -0.057000
      8 C9           0.0100    -0.0010    -2.4090 ca         1 BMW      -0.137000
      9 C10         -0.6850     0.0010    -1.2010 ca         1 BMW       0.005600
     10 N11         -2.0850     0.0010    -1.2040 nh         1 BMW      -0.243700
     11 C12         -2.9210     0.0010    -2.4080 c3         1 BMW       0.148800
     12 C13         -4.3700     0.0010    -1.8920 c3         1 BMW       0.054900
     13 C14         -4.2310     0.0020    -0.3890 ca         1 BMW      -0.440900
     14 C15         -2.8780    -0.0050    -0.0700 ca         1 BMW       0.549200
     15 N16         -2.5330    -0.0120     1.2210 nb         1 BMW      -0.682000
     16 C17         -3.4520    -0.0160     2.1720 ca         1 BMW       0.741900
     17 N18         -3.0460    -0.0240     3.4960 nh         1 BMW      -0.445300
     18 C19         -4.2050    -0.0280     4.4020 c3         1 BMW       0.100800
     19 C20         -3.7120    -0.0960     5.8500 c3         1 BMW       0.210900
     20 O21         -2.8330     1.0020     6.1010 os         1 BMW      -0.413600
     21 C22         -1.6940     1.0390     5.2370 c3         1 BMW       0.210900
     22 C23         -2.1650     1.1180     3.7830 c3         1 BMW       0.100800
     23 N24         -4.7470    -0.0150     1.8990 nb         1 BMW      -0.704000
     24 C25         -5.1710     0.0030     0.6340 cp         1 BMW       0.559800
     25 C26         -6.6220     0.0040     0.3250 cp         1 BMW      -0.137500
     26 C27         -7.5110    -0.6870     1.1450 ca         1 BMW      -0.101000
     27 C28         -7.1000     0.7000    -0.7840 ca         1 BMW      -0.115000
     28 C29         -8.4510     0.7000    -1.0680 ca         1 BMW      -0.087000
     29 C30         -9.3320     0.0110    -0.2560 ca         1 BMW      -0.127000
     30 C31         -8.8650    -0.6820     0.8520 ca         1 BMW       0.118100
     31 O32         -9.7360    -1.3530     1.6500 oh         1 BMW      -0.498100
     32 H1          -0.5440     0.0010     0.9370 ha         1 BMW       0.171000
     33 H5           4.4480     0.0020     1.0210 h5         1 BMW       0.024800
     34 HN6          4.2000    -0.0000    -1.5420 hn         1 BMW       0.126700
     35 H8           1.9230    -0.0020    -3.3610 ha         1 BMW       0.098000
     36 H9          -0.5360    -0.0000    -3.3440 ha         1 BMW       0.109000
     37 H12         -2.7380     0.9040    -2.9780 h1         1 BMW       0.025700
     38 H12A        -2.7380    -0.9030    -2.9770 h1         1 BMW       0.025700
     39 H13         -4.8730     0.9060    -2.2130 hc         1 BMW       0.032700
     40 H13A        -4.8730    -0.9030    -2.2120 hc         1 BMW       0.032700
     41 H19         -4.8250    -0.8910     4.1910 h1         1 BMW       0.034700
     42 H19A        -4.7780     0.8800     4.2590 h1         1 BMW       0.034700
     43 H20         -3.1800    -1.0270     6.0070 h1         1 BMW       0.014200
     44 H20A        -4.5600    -0.0400     6.5230 h1         1 BMW       0.014200
     45 H22         -1.1060     0.1400     5.3780 h1         1 BMW       0.014200
     46 H22A        -1.0930     1.9100     5.4690 h1         1 BMW       0.014200
     47 H23         -2.7110     2.0410     3.6310 h1         1 BMW       0.034700
     48 H23A        -1.3070     1.0850     3.1230 h1         1 BMW       0.034700
     49 H27         -7.1450    -1.2270     2.0100 ha         1 BMW       0.129000
     50 H28         -6.4120     1.2420    -1.4220 ha         1 BMW       0.117000
     51 H29         -8.8210     1.2400    -1.9310 ha         1 BMW       0.104000
     52 H30        -10.3920     0.0140    -0.4840 ha         1 BMW       0.113000
     53 HO32        -9.7980    -2.2490     1.3630 ho         1 BMW       0.402000
@<TRIPOS>BOND
     1     1     2 ar  
     2     1     9 ar  
     3     1    32 1   
     4     2     3 1   
     5     2     6 ar  
     6     3     4 2   
     7     4     5 1   
     8     4    33 1   
     9     5     6 1   
    10     5    34 1   
    11     6     7 ar  
    12     7     8 ar  
    13     7    35 1   
    14     8     9 ar  
    15     8    36 1   
    16     9    10 1   
    17    10    11 1   
    18    10    14 1   
    19    11    12 1   
    20    11    37 1   
    21    11    38 1   
    22    12    13 1   
    23    12    39 1   
    24    12    40 1   
    25    13    14 ar  
    26    13    24 ar  
    27    14    15 ar  
    28    15    16 ar  
    29    16    17 1   
    30    16    23 ar  
    31    17    18 1   
    32    17    22 1   
    33    18    19 1   
    34    18    41 1   
    35    18    42 1   
    36    19    20 1   
    37    19    43 1   
    38    19    44 1   
    39    20    21 1   
    40    21    22 1   
    41    21    45 1   
    42    21    46 1   
    43    22    47 1   
    44    22    48 1   
    45    23    24 ar  
    46    24    25 1   
    47    25    26 ar  
    48    25    27 ar  
    49    26    30 ar  
    50    26    49 1   
    51    27    28 ar  
    52    27    50 1   
    53    28    29 ar  
    54    28    51 1   
    55    29    30 ar  
    56    29    52 1   
    57    30    31 1   
    58    31    53 1   
@<TRIPOS>SUBSTRUCTURE
     1 BMW         1 TEMP              0 ****  ****    0 ROOT
