@<TRIPOS>MOLECULE
BMZ
   33    35     1     0     0
SMALL
bcc


@<TRIPOS>ATOM
      1 C1           0.0000     0.0000     0.0000 ca         1 BMZ      -0.232900
      2 C2           1.4010     0.0000     0.0000 ca         1 BMZ      -0.073000
      3 C3           2.0930     0.0000     1.1770 ca         1 BMZ      -0.009000
      4 C4           1.4110    -0.0020     2.3880 ca         1 BMZ      -0.199200
      5 C5           0.0020    -0.0030     2.4070 ca         1 BMZ       0.079400
      6 C6          -0.7000     0.0040     1.2020 ca         1 BMZ       0.050000
      7 C7          -0.7360     0.0010    -1.2820 ce         1 BMZ      -0.024200
      8 N1          -2.0680     0.0010    -1.2850 nz         1 BMZ       0.180400
      9 N2          -0.0670     0.0030    -2.4340 nv         1 BMZ       0.264900
     10 N3           1.8120    -0.0040     3.7080 na         1 BMZ       0.364700
     11 N4          -0.3810    -0.0060     3.7070 nc         1 BMZ      -0.457100
     12 C8           0.6790    -0.0060     4.4780 cd         1 BMZ       0.381400
     13 C1'          0.6560    -0.0100     5.9550 ca         1 BMZ      -0.231900
     14 C2'          1.5690     0.7650     6.6730 ca         1 BMZ      -0.050000
     15 C3'          1.5420     0.7580     8.0510 ca         1 BMZ      -0.108000
     16 C4'          0.6130    -0.0140     8.7280 ca         1 BMZ       0.004000
     17 C5'         -0.2960    -0.7840     8.0290 ca         1 BMZ      -0.166000
     18 C6'         -0.2860    -0.7840     6.6430 ca         1 BMZ       0.213100
     19 O6'         -1.1780    -1.5410     5.9550 oh         1 BMZ      -0.481100
     20 HC2          1.9390    -0.0030    -0.9400 ha         1 BMZ       0.118000
     21 HC3          3.1760     0.0000     1.1670 ha         1 BMZ       0.144000
     22 HC6         -1.7830     0.0040     1.2020 ha         1 BMZ       0.104000
     23 HH11        -2.4000    -0.0010    -2.2290 hn         1 BMZ       0.246133
     24 HH12        -2.4040     0.8190    -0.8160 hn         1 BMZ       0.246133
     25 HH21         0.9340     0.0030    -2.4330 hn         1 BMZ       0.159200
     26 HH22        -0.5650     0.0040    -3.3020 hn         1 BMZ       0.159200
     27 HN3          2.7550    -0.0040     4.0410 hn         1 BMZ       0.164700
     28 HC2'         2.2980     1.3700     6.1480 ha         1 BMZ       0.098000
     29 HC3'         2.2510     1.3590     8.6070 ha         1 BMZ       0.129000
     30 HC4'         0.6000    -0.0150     9.8110 ha         1 BMZ       0.125000
     31 HC5'        -1.0220    -1.3830     8.5650 ha         1 BMZ       0.135000
     32 HO6         -1.1700    -2.4210     6.2910 ho         1 BMZ       0.420000
     33 H13         -2.4030    -0.8200    -0.8200 hn         1 BMZ       0.246133
@<TRIPOS>BOND
     1     1     2 ar  
     2     1     6 ar  
     3     1     7 1   
     4     2     3 ar  
     5     2    20 1   
     6     3     4 ar  
     7     3    21 1   
     8     4     5 ar  
     9     4    10 1   
    10     5     6 ar  
    11     5    11 1   
    12     6    22 1   
    13     7     8 1   
    14     7     9 2   
    15     8    23 1   
    16     8    24 1   
    17     8    33 1   
    18     9    25 1   
    19     9    26 1   
    20    10    12 1   
    21    10    27 1   
    22    11    12 2   
    23    12    13 1   
    24    13    14 ar  
    25    13    18 ar  
    26    14    15 ar  
    27    14    28 1   
    28    15    16 ar  
    29    15    29 1   
    30    16    17 ar  
    31    16    30 1   
    32    17    18 ar  
    33    17    31 1   
    34    18    19 1   
    35    19    32 1   
@<TRIPOS>SUBSTRUCTURE
     1 BMZ         1 TEMP              0 ****  ****    0 ROOT
