@<TRIPOS>MOLECULE
BN1
   28    29     1     0     0
SMALL
bcc


@<TRIPOS>ATOM
      1 O1         -0.1350   -0.8520    0.3840 o         1 BN1     -0.758300
      2 C1          0.8050   -0.0850    0.1250 c         1 BN1      0.938600
      3 O2          0.9980    0.6710   -0.8610 o         1 BN1     -0.758300
      4 C2          1.9710   -0.0110    1.2400 c3        1 BN1     -0.072500
      5 N1          3.1940    0.5510    0.5940 n4        1 BN1     -0.820600
      6 C3          2.1910   -1.3690    1.8790 c3        1 BN1     -0.026100
      7 C4          2.9030   -1.3110    3.1600 cc        1 BN1     -0.259900
      8 C5          4.2420   -1.4440    3.4810 cd        1 BN1      0.217700
      9 O3          4.3870   -1.3830    4.8910 os        1 BN1     -0.087100
     10 N2          3.2080   -1.2130    5.4590 nd        1 BN1     -0.416300
     11 C6          2.2680   -1.1620    4.4820 cc        1 BN1      0.534600
     12 O4          0.9260   -0.9950    4.6070 oh        1 BN1     -0.564300
     13 C7          5.4450   -1.6160    2.7180 cd        1 BN1      0.444000
     14 N3          6.5800   -2.2930    3.0820 nc        1 BN1     -0.428800
     15 N4          7.3830   -2.1360    2.0140 na        1 BN1      0.223900
     16 N5          6.8000   -1.4060    1.0270 nc        1 BN1     -0.134800
     17 N6          5.6380   -1.0710    1.4070 nd        1 BN1     -0.420000
     18 C8          8.7220   -2.7210    1.9270 c3        1 BN1      0.043600
     19 H2          1.6190    0.7310    2.0090 hx        1 BN1      0.093700
     20 H3          2.8550    1.2420   -0.1050 hn        1 BN1      0.448467
     21 H4          3.6830   -0.1900    0.0890 hn        1 BN1      0.448467
     22 H5          2.7190   -2.0660    1.1730 hc        1 BN1      0.107200
     23 H6          1.1530   -1.7920    2.0490 hc        1 BN1      0.107200
     24 H7          0.6950   -0.9770    5.5530 ho        1 BN1      0.448000
     25 H8          9.2420   -2.3170    1.0200 h1        1 BN1      0.081700
     26 H9          8.6260   -3.8370    1.8480 h1        1 BN1      0.081700
     27 H10         9.2990   -2.4540    2.8510 h1        1 BN1      0.081700
     28 H13         3.8200    0.9840    1.2650 hn        1 BN1      0.448467
@<TRIPOS>BOND
     1    1    2 1
     2    2    3 1
     3    2    4 1
     4    4    5 1
     5    4    6 1
     6    4   19 1
     7    5   20 1
     8    5   21 1
     9    5   28 1
    10    6    7 1
    11    6   22 1
    12    6   23 1
    13    7    8 2
    14    7   11 1
    15    8    9 1
    16    8   13 1
    17    9   10 1
    18   10   11 2
    19   11   12 1
    20   12   24 1
    21   13   14 2
    22   13   17 1
    23   14   15 1
    24   15   16 1
    25   15   18 1
    26   16   17 2
    27   18   25 1
    28   18   26 1
    29   18   27 1
@<TRIPOS>SUBSTRUCTURE
     1 BN1         1 TEMP              0 ****  ****    0 ROOT
