@<TRIPOS>MOLECULE
BN3
   43    44     1     0     0
SMALL
bcc


@<TRIPOS>ATOM
      1 C4          0.0000    0.0000    0.0000 ca        1 BN3     -0.086000
      2 C5          1.3790    0.0000    0.0000 ca        1 BN3     -0.067000
      3 C6          2.0740    0.0000    1.2110 ca        1 BN3     -0.234600
      4 C1          1.3660   -0.0060    2.4160 ca        1 BN3      0.034400
      5 Cl1         2.2200   -0.0070    3.9270 cl        1 BN3      0.102600
      6 C2         -0.0150   -0.0000    2.4010 ca        1 BN3     -0.097000
      7 C3         -0.6970    0.0010    1.1980 ca        1 BN3      0.013400
      8 N1          4.2300   -0.0000    0.0550 ny        1 BN3      0.321400
      9 C7          3.5500   -0.0010    1.2180 c         1 BN3      0.360700
     10 O1          4.1520   -0.0010    2.2740 o         1 BN3     -0.380100
     11 N2          6.2580   -0.0020   -1.1020 ns        1 BN3      0.092900
     12 C9          7.6530   -0.1320   -1.0970 ca        1 BN3     -0.241400
     13 C10         8.2890   -0.7520   -0.0320 ca        1 BN3     -0.040000
     14 C11         9.6640   -0.8800   -0.0290 ca        1 BN3     -0.128000
     15 C12        10.4100   -0.3890   -1.0910 ca        1 BN3      0.208100
     16 O3         11.7640   -0.5150   -1.0860 os        1 BN3     -0.247900
     17 C15        12.2380    0.0790   -2.2950 c3        1 BN3      0.153400
     18 C16        13.7630   -0.0300   -2.3540 c3        1 BN3     -0.023400
     19 C17        14.2710    0.6060   -3.6490 c3        1 BN3     -0.132400
     20 C13         9.7750    0.2360   -2.1530 ca        1 BN3     -0.204000
     21 C14         8.3990    0.3600   -2.1600 ca        1 BN3      0.017400
     22 C8          5.5780   -0.0010    0.0620 c         1 BN3      0.253100
     23 O2          6.1800   -0.0020    1.1170 o         1 BN3     -0.510100
     24 Cl2        -2.4320    0.0020    1.1870 cl        1 BN3      0.060600
     25 Cl3         7.6050    1.1360   -3.4940 cl        1 BN3     -0.019400
     26 C18        15.7730    0.4990   -3.7050 c         1 BN3      0.978600
     27 O4         16.4410    0.9930   -4.7590 o         1 BN3     -0.890800
     28 O5         16.3750   -0.0320   -2.8040 o         1 BN3     -0.890800
     29 H4         -0.5400    0.0010   -0.9390 ha        1 BN3      0.135000
     30 H5          1.9210    0.0020   -0.9370 ha        1 BN3      0.085000
     31 H2         -0.5660   -0.0020    3.3330 ha        1 BN3      0.146000
     32 HN1         3.9410   -0.8140   -0.4510 hn        1 BN3      0.261300
     33 HN2         5.7640    0.0540   -1.9700 hn        1 BN3      0.162500
     34 H10         7.7040   -1.1790    0.7730 ha        1 BN3      0.134000
     35 H11        10.1610   -1.3650    0.8030 ha        1 BN3      0.136000
     36 H151       11.9490    1.1230   -2.3220 h1        1 BN3      0.006200
     37 H152       11.8060   -0.4370   -3.1440 h1        1 BN3      0.006200
     38 H161       14.0520   -1.0730   -2.3270 hc        1 BN3      0.037200
     39 H162       14.1950    0.4870   -1.5050 hc        1 BN3      0.037200
     40 H171       13.9820    1.6490   -3.6760 hc        1 BN3      0.003700
     41 H172       13.8400    0.0890   -4.4980 hc        1 BN3      0.003700
     42 H13        10.3590    0.6310   -2.9760 ha        1 BN3      0.176000
     43 H12         3.9420    0.8140   -0.4490 hn        1 BN3      0.261300
@<TRIPOS>BOND
     1    1    2 ar  
     2    1    7 ar  
     3    1   29 1   
     4    2    3 ar  
     5    2   30 1   
     6    3    4 ar  
     7    3    9 1   
     8    4    5 1   
     9    4    6 ar  
    10    6    7 ar  
    11    6   31 1   
    12    7   24 1   
    13    8    9 1   
    14    8   22 1   
    15    8   32 1   
    16    8   43 1   
    17    9   10 2   
    18   11   12 1   
    19   11   22 1   
    20   11   33 1   
    21   12   13 ar  
    22   12   21 ar  
    23   13   14 ar  
    24   13   34 1   
    25   14   15 ar  
    26   14   35 1   
    27   15   16 1   
    28   15   20 ar  
    29   16   17 1   
    30   17   18 1   
    31   17   36 1   
    32   17   37 1   
    33   18   19 1   
    34   18   38 1   
    35   18   39 1   
    36   19   26 1   
    37   19   40 1   
    38   19   41 1   
    39   20   21 ar  
    40   20   42 1   
    41   21   25 1   
    42   22   23 2   
    43   26   27 1   
    44   26   28 1   
@<TRIPOS>SUBSTRUCTURE
     1 BN3         1 TEMP              0 ****  ****    0 ROOT
