@<TRIPOS>MOLECULE
molecule
   42    43     1     0     0
SMALL
bcc


@<TRIPOS>ATOM
      1 C4           0.0000     0.0000     0.0000 ca         1 BN3      -0.134000
      2 C5           1.3790     0.0000     0.0000 ca         1 BN3      -0.088000
      3 C6           2.0740     0.0000     1.2110 ca         1 BN3      -0.144600
      4 C1           1.3660    -0.0060     2.4160 ca         1 BN3       0.086400
      5 Cl1          2.2200    -0.0070     3.9270 cl         1 BN3      -0.038400
      6 C2          -0.0150    -0.0000     2.4010 ca         1 BN3      -0.130000
      7 C3          -0.6970     0.0010     1.1980 ca         1 BN3       0.056400
      8 N1           4.2300    -0.0000     0.0550 ns         1 BN3      -0.590500
      9 C7           3.5500    -0.0010     1.2180 c          1 BN3       0.668700
     10 O1           4.1520    -0.0010     2.2740 o          1 BN3      -0.497100
     11 N2           6.2580    -0.0020    -1.1020 ns         1 BN3      -0.479100
     12 C9           7.6530    -0.1320    -1.0970 ca         1 BN3       0.020600
     13 C10          8.2890    -0.7520    -0.0320 ca         1 BN3      -0.099000
     14 C11          9.6640    -0.8800    -0.0290 ca         1 BN3      -0.147000
     15 C12         10.4100    -0.3890    -1.0910 ca         1 BN3       0.134100
     16 O3          11.7640    -0.5150    -1.0860 os         1 BN3      -0.286900
     17 C15         12.2380     0.0790    -2.2950 c3         1 BN3       0.095400
     18 C16         13.7630    -0.0300    -2.3540 c3         1 BN3      -0.065400
     19 C17         14.2710     0.6060    -3.6490 c3         1 BN3      -0.184400
     20 C13          9.7750     0.2360    -2.1530 ca         1 BN3      -0.203000
     21 C14          8.3990     0.3600    -2.1600 ca         1 BN3       0.030400
     22 C8           5.5780    -0.0010     0.0620 c          1 BN3       0.770100
     23 O2           6.1800    -0.0020     1.1170 o          1 BN3      -0.573100
     24 Cl2         -2.4320     0.0020     1.1870 cl         1 BN3      -0.094400
     25 Cl3          7.6050     1.1360    -3.4940 cl         1 BN3      -0.129400
     26 C18         15.7730     0.4990    -3.7050 c          1 BN3       0.893600
     27 O4          16.4410     0.9930    -4.7590 o          1 BN3      -0.850300
     28 O5          16.3750    -0.0320    -2.8040 o          1 BN3      -0.850300
     29 H4          -0.5400     0.0010    -0.9390 ha         1 BN3       0.150000
     30 H5           1.9210     0.0020    -0.9370 ha         1 BN3       0.136000
     31 H2          -0.5660    -0.0020     3.3330 ha         1 BN3       0.162000
     32 HN1          3.7330     0.0050    -0.8140 hn         1 BN3       0.312500
     33 HN2          5.7640     0.0560    -1.9700 hn         1 BN3       0.320500
     34 H10          7.7080    -1.1360     0.7970 ha         1 BN3       0.178000
     35 H11         10.1610    -1.3650     0.8030 ha         1 BN3       0.152000
     36 H151        11.8060    -0.4370    -3.1440 h1         1 BN3       0.033200
     37 H152        11.9490     1.1230    -2.3220 h1         1 BN3       0.033200
     38 H161        14.0520    -1.0730    -2.3270 hc         1 BN3       0.061200
     39 H162        14.1950     0.4870    -1.5050 hc         1 BN3       0.061200
     40 H171        13.9820     1.6490    -3.6760 hc         1 BN3       0.028200
     41 H172        13.8400     0.0890    -4.4980 hc         1 BN3       0.028200
     42 H13         10.3580     0.6200    -2.9820 ha         1 BN3       0.172000
@<TRIPOS>BOND
     1     1     2 ar
     2     1     7 ar
     3     1    29 1
     4     2     3 ar
     5     2    30 1
     6     3     4 ar
     7     3     9 1
     8     4     5 1
     9     4     6 ar
    10     6     7 ar
    11     6    31 1
    12     7    24 1
    13     8     9 1
    14     8    22 1
    15     8    32 1
    16     9    10 2
    17    11    12 1
    18    11    22 1
    19    11    33 1
    20    12    13 ar
    21    12    21 ar
    22    13    14 ar
    23    13    34 1
    24    14    15 ar
    25    14    35 1
    26    15    16 1
    27    15    20 ar
    28    16    17 1
    29    17    18 1
    30    17    36 1
    31    17    37 1
    32    18    19 1
    33    18    38 1
    34    18    39 1
    35    19    26 1
    36    19    40 1
    37    19    41 1
    38    20    21 ar
    39    20    42 1
    40    21    25 1
    41    22    23 2
    42    26    27 1
    43    26    28 1
@<TRIPOS>SUBSTRUCTURE
     1 BN3         1 TEMP              0 ****  ****    0 ROOT
