@<TRIPOS>MOLECULE
BN4
   48    49     1     0     0
SMALL
bcc


@<TRIPOS>ATOM
      1 C4           0.0000     0.0000     0.0000 ca         1 BN4      -0.113000
      2 C5           1.3780     0.0000     0.0000 ca         1 BN4      -0.065000
      3 C6           2.0740     0.0000     1.2110 ca         1 BN4      -0.158600
      4 C1           1.3670    -0.0070     2.4160 ca         1 BN4       0.013400
      5 Cl1          2.2210    -0.0100     3.9270 cl         1 BN4       0.062600
      6 C2          -0.0140    -0.0020     2.4020 ca         1 BN4      -0.114000
      7 C3          -0.6970    -0.0000     1.1980 ca         1 BN4      -0.006600
      8 N1           4.2290    -0.0010     0.0540 ns         1 BN4      -0.182500
      9 C7           3.5500    -0.0020     1.2170 c          1 BN4       0.581700
     10 O1           4.1530    -0.0030     2.2730 o          1 BN4      -0.540100
     11 N2           6.2570    -0.0010    -1.1030 ns         1 BN4      -0.034100
     12 C9           7.6500    -0.1310    -1.1000 ca         1 BN4      -0.139400
     13 C10          8.2890    -0.7530    -0.0350 ca         1 BN4      -0.073000
     14 C11          9.6630    -0.8810    -0.0330 ca         1 BN4      -0.201000
     15 C12         10.4070    -0.3920    -1.0980 ca         1 BN4       0.150100
     16 O3          11.7610    -0.5170    -1.0940 os         1 BN4      -0.276900
     17 C15         12.1120    -1.1840     0.1190 c3         1 BN4       0.159400
     18 C16         13.6300    -1.3570     0.1860 c3         1 BN4      -0.025400
     19 C17         14.0050    -2.0730     1.4850 c3         1 BN4      -0.130400
     20 C13          9.7710     0.2250    -2.1640 ca         1 BN4      -0.121300
     21 C14          8.3950     0.3530    -2.1670 ca         1 BN4      -0.093300
     22 C8           5.5770    -0.0020     0.0600 c          1 BN4       0.539100
     23 O2           6.1800    -0.0020     1.1150 o          1 BN4      -0.606100
     24 Cl2         -2.4330     0.0010     1.1890 cl         1 BN4      -0.020400
     25 C19          7.7040     1.0250    -3.3260 c3         1 BN4       0.054200
     26 C18         15.5010    -2.2440     1.5510 c          1 BN4       0.981600
     27 O4          16.0610    -2.8490     2.6090 o          1 BN4      -0.902300
     28 O5          16.1950    -1.8350     0.6510 o          1 BN4      -0.902300
     29 C20         10.5790     0.7570    -3.3190 c3         1 BN4       0.066200
     30 H4          -0.5400     0.0010    -0.9390 ha         1 BN4       0.117000
     31 H5           1.9200     0.0030    -0.9380 ha         1 BN4       0.104000
     32 H2          -0.5640    -0.0050     3.3350 ha         1 BN4       0.128000
     33 HN1          3.7330     0.0100    -0.8150 hn         1 BN4       0.164500
     34 HN2          5.7620     0.0540    -1.9710 hn         1 BN4       0.154500
     35 H10          7.7080    -1.1350     0.7960 ha         1 BN4       0.152000
     36 H11         10.1610    -1.3660     0.7980 ha         1 BN4       0.149000
     37 H151        11.6350    -2.1560     0.1470 h1         1 BN4       0.005700
     38 H152        11.7780    -0.5940     0.9640 h1         1 BN4       0.005700
     39 H161        14.1070    -0.3850     0.1590 hc         1 BN4       0.030200
     40 H162        13.9640    -1.9460    -0.6600 hc         1 BN4       0.030200
     41 H171        13.6720    -1.4840     2.3310 hc         1 BN4       0.004700
     42 H172        13.5290    -3.0450     1.5120 hc         1 BN4       0.004700
     43 H191         7.2510     0.2730    -3.9610 hc         1 BN4       0.005700
     44 H192         8.4270     1.5930    -3.8970 hc         1 BN4       0.005700
     45 H193         6.9360     1.6910    -2.9510 hc         1 BN4       0.005700
     46 H201        11.6230     0.5030    -3.1760 hc         1 BN4       0.010700
     47 H202        10.4740     1.8340    -3.3680 hc         1 BN4       0.010700
     48 H203        10.2230     0.3170    -4.2420 hc         1 BN4       0.010700
@<TRIPOS>BOND
     1     1     2 ar  
     2     1     7 ar  
     3     1    30 1   
     4     2     3 ar  
     5     2    31 1   
     6     3     4 ar  
     7     3     9 1   
     8     4     5 1   
     9     4     6 ar  
    10     6     7 ar  
    11     6    32 1   
    12     7    24 1   
    13     8     9 1   
    14     8    22 1   
    15     8    33 1   
    16     9    10 2   
    17    11    12 1   
    18    11    22 1   
    19    11    34 1   
    20    12    13 ar  
    21    12    21 ar  
    22    13    14 ar  
    23    13    35 1   
    24    14    15 ar  
    25    14    36 1   
    26    15    16 1   
    27    15    20 ar  
    28    16    17 1   
    29    17    18 1   
    30    17    37 1   
    31    17    38 1   
    32    18    19 1   
    33    18    39 1   
    34    18    40 1   
    35    19    26 1   
    36    19    41 1   
    37    19    42 1   
    38    20    21 ar  
    39    20    29 1   
    40    21    25 1   
    41    22    23 2   
    42    25    43 1   
    43    25    44 1   
    44    25    45 1   
    45    26    27 1   
    46    26    28 1   
    47    29    46 1   
    48    29    47 1   
    49    29    48 1   
@<TRIPOS>SUBSTRUCTURE
     1 BN4         1 TEMP              0 ****  ****    0 ROOT
