@<TRIPOS>MOLECULE
BN5
   48    49     1     0     0
SMALL
bcc


@<TRIPOS>ATOM
      1 C4           0.0000     0.0000     0.0000 ca         1 BN5      -0.112000
      2 C5           1.3780     0.0000     0.0000 ca         1 BN5      -0.064000
      3 C6           2.0740     0.0000     1.2120 ca         1 BN5      -0.160600
      4 C1           1.3660    -0.0060     2.4160 ca         1 BN5       0.014400
      5 Cl1          2.2200    -0.0070     3.9270 cl         1 BN5       0.058600
      6 C2          -0.0150    -0.0010     2.4020 ca         1 BN5      -0.114000
      7 C3          -0.6970    -0.0010     1.1990 ca         1 BN5      -0.006600
      8 N1           4.2300    -0.0000     0.0550 ns         1 BN5      -0.181500
      9 C7           3.5500     0.0000     1.2180 c          1 BN5       0.583700
     10 O1           4.1520    -0.0000     2.2730 o          1 BN5      -0.542100
     11 N2           6.2570    -0.0000    -1.1020 ns         1 BN5      -0.042100
     12 C9           7.6480     0.1370    -1.1000 ca         1 BN5      -0.054400
     13 C10          8.2760     0.8310    -0.0740 ca         1 BN5      -0.158000
     14 C11          9.6510     0.9670    -0.0710 ca         1 BN5      -0.041000
     15 C12         10.4050     0.4130    -1.0890 ca         1 BN5      -0.227000
     16 C16         11.8910    -0.5180    -2.8300 c3         1 BN5       0.168400
     17 C17         12.7850    -1.1050    -3.9240 c3         1 BN5      -0.047400
     18 C18         14.2480    -0.7690    -3.6220 c3         1 BN5      -0.011400
     19 C19         15.1420    -1.3560    -4.7160 c3         1 BN5      -0.133400
     20 C20         16.5810    -1.0240    -4.4210 c          1 BN5       0.980600
     21 O5          17.5500    -1.4410    -5.2500 o          1 BN5      -0.904800
     22 O4          16.8630    -0.3850    -3.4350 o          1 BN5      -0.904800
     23 C13          9.7830    -0.2870    -2.1120 ca         1 BN5       0.168100
     24 C14          8.4040    -0.4200    -2.1220 ca         1 BN5      -0.172300
     25 C8           5.5770    -0.0010     0.0610 c          1 BN5       0.542100
     26 O2           6.1800    -0.0000     1.1160 o          1 BN5      -0.605100
     27 Cl2         -2.4330    -0.0010     1.1890 cl         1 BN5      -0.018400
     28 H4          -0.5400    -0.0000    -0.9390 ha         1 BN5       0.118000
     29 H5           1.9210     0.0030    -0.9380 ha         1 BN5       0.105000
     30 H2          -0.5660    -0.0030     3.3350 ha         1 BN5       0.128000
     31 HN1          3.7340    -0.0060    -0.8140 hn         1 BN5       0.166500
     32 HN2          5.7630    -0.0610    -1.9700 hn         1 BN5       0.159500
     33 H10          7.6880     1.2660     0.7240 ha         1 BN5       0.146000
     34 H11         10.1390     1.5110     0.7280 ha         1 BN5       0.101000
     35 H151         7.0690    -1.9260    -2.8170 hc         1 BN5       0.006700
     36 H152         7.1470    -0.4840    -3.8380 hc         1 BN5       0.006700
     37 H153         8.4750    -1.6530    -3.8560 hc         1 BN5       0.006700
     38 H12         11.4820     0.5210    -1.0840 ha         1 BN5       0.147000
     39 H161        12.1680    -0.9400    -1.8720 h1         1 BN5       0.012700
     40 H162        12.0160     0.5580    -2.8000 h1         1 BN5       0.012700
     41 H171        12.5080    -0.6830    -4.8820 hc         1 BN5       0.014200
     42 H172        12.6610    -2.1810    -3.9530 hc         1 BN5       0.014200
     43 H181        14.3720     0.3070    -3.5930 hc         1 BN5       0.021200
     44 H182        14.5250    -1.1910    -2.6640 hc         1 BN5       0.021200
     45 H191        15.0180    -2.4320    -4.7450 hc         1 BN5       0.005200
     46 H192        14.8640    -0.9350    -5.6740 hc         1 BN5       0.005200
     47 C15          7.7260    -1.1740    -3.2360 c3         1 BN5       0.071200
     48 O3          10.5260    -0.8310    -3.1120 os         1 BN5      -0.286900
@<TRIPOS>BOND
     1     1     2 ar  
     2     1     7 ar  
     3     1    28 1   
     4     2     3 ar  
     5     2    29 1   
     6     3     4 ar  
     7     3     9 1   
     8     4     5 1   
     9     4     6 ar  
    10     6     7 ar  
    11     6    30 1   
    12     7    27 1   
    13     8     9 1   
    14     8    25 1   
    15     8    31 1   
    16     9    10 2   
    17    11    12 1   
    18    11    25 1   
    19    11    32 1   
    20    12    13 ar  
    21    12    24 ar  
    22    13    14 ar  
    23    13    33 1   
    24    14    15 ar  
    25    14    34 1   
    26    15    23 ar  
    27    15    38 1   
    28    16    17 1   
    29    16    39 1   
    30    16    40 1   
    31    16    48 1   
    32    17    18 1   
    33    17    41 1   
    34    17    42 1   
    35    18    19 1   
    36    18    43 1   
    37    18    44 1   
    38    19    20 1   
    39    19    45 1   
    40    19    46 1   
    41    20    21 1   
    42    20    22 1   
    43    23    24 ar  
    44    23    48 1   
    45    24    47 1   
    46    25    26 2   
    47    35    47 1   
    48    36    47 1   
    49    37    47 1   
@<TRIPOS>SUBSTRUCTURE
     1 BN5         1 TEMP              0 ****  ****    0 ROOT
