@<TRIPOS>MOLECULE
BN7
   44    45     1     0     0
SMALL
bcc


@<TRIPOS>ATOM
      1 O            0.0000     0.0000     0.0000 o          1 BN7      -0.588000
      2 C7           1.2080     0.0000     0.0000 c          1 BN7       0.691100
      3 O1           1.8800     0.0000     1.1620 os         1 BN7      -0.414900
      4 C8           1.0910     0.0010     2.3800 c3         1 BN7       0.226400
      5 C9           2.0230     0.0020     3.5930 c3         1 BN7      -0.064700
      6 C10          2.8170     1.3090     3.6250 c3         1 BN7       0.008900
      7 C11          1.1940    -0.1230     4.8730 c3         1 BN7       0.008900
      8 C6           1.9610    -0.0070    -1.3060 c3         1 BN7      -0.069400
      9 C5           0.9660    -0.0060    -2.4690 c3         1 BN7      -0.019400
     10 C4           1.7310    -0.0140    -3.7940 c3         1 BN7      -0.035400
     11 C3           0.7360    -0.0130    -4.9560 c3         1 BN7      -0.017400
     12 C2           1.5000    -0.0200    -6.2820 c3         1 BN7       0.064400
     13 C12          0.5260    -0.0810    -7.4740 c3         1 BN7       0.009700
     14 N           -0.7510     0.5400    -7.0880 ns         1 BN7      -0.217900
     15 C13         -0.9970     1.5760    -7.9030 c          1 BN7       0.623500
     16 O2          -1.9900     2.2720    -7.8090 o          1 BN7      -0.723500
     17 S            2.3680     1.5800    -6.5420 ss         1 BN7      -0.409200
     18 C1           2.3500     1.4680    -8.3790 c3         1 BN7       0.090700
     19 C            1.0080     0.7540    -8.6660 c3         1 BN7      -0.000300
     20 N1          -0.0500     1.7740    -8.8290 ns         1 BN7      -0.215900
     21 H1           0.4660     0.8860     2.4040 h1         1 BN7       0.013700
     22 H2           0.4650    -0.8830     2.4060 h1         1 BN7       0.013700
     23 H3           2.7070    -0.8350     3.5220 hc         1 BN7       0.032700
     24 H4           2.1490     2.1430     3.4480 hc         1 BN7       0.005367
     25 H5           3.2870     1.4220     4.5940 hc         1 BN7       0.005367
     26 H6           3.5790     1.2880     2.8550 hc         1 BN7       0.005367
     27 H7           0.5010     0.7070     4.9370 hc         1 BN7       0.005367
     28 H8           1.8540    -0.1090     5.7330 hc         1 BN7       0.005367
     29 H9           0.6420    -1.0550     4.8570 hc         1 BN7       0.005367
     30 H10          2.5800    -0.8950    -1.3610 hc         1 BN7       0.036700
     31 H11          2.5880     0.8740    -1.3660 hc         1 BN7       0.036700
     32 H12          0.3390    -0.8880    -2.4090 hc         1 BN7       0.031200
     33 H13          0.3470     0.8810    -2.4140 hc         1 BN7       0.031200
     34 H14          2.3570     0.8680    -3.8540 hc         1 BN7       0.024200
     35 H15          2.3490    -0.9010    -3.8490 hc         1 BN7       0.024200
     36 H16          0.1090    -0.8950    -4.8950 hc         1 BN7       0.034200
     37 H17          0.1170     0.8750    -4.9010 hc         1 BN7       0.034200
     38 H18          2.2020    -0.8450    -6.3220 h1         1 BN7       0.058700
     39 H19          0.3660    -1.1090    -7.7760 h1         1 BN7       0.038700
     40 H20         -1.3420     0.2370    -6.3390 hn         1 BN7       0.222500
     41 H21          3.1410     0.7860    -8.6640 h1         1 BN7       0.065200
     42 H22          2.2610     2.4790    -8.7580 h1         1 BN7       0.065200
     43 H23          1.0850     0.1400    -9.5550 h1         1 BN7       0.040700
     44 H24         -0.0590     2.4960    -9.5230 hn         1 BN7       0.215500
@<TRIPOS>BOND
     1     1     2 2   
     2     2     3 1   
     3     2     8 1   
     4     3     4 1   
     5     4     5 1   
     6     4    21 1   
     7     4    22 1   
     8     5     6 1   
     9     5     7 1   
    10     5    23 1   
    11     6    24 1   
    12     6    25 1   
    13     6    26 1   
    14     7    27 1   
    15     7    28 1   
    16     7    29 1   
    17     8     9 1   
    18     8    30 1   
    19     8    31 1   
    20     9    10 1   
    21     9    32 1   
    22     9    33 1   
    23    10    11 1   
    24    10    34 1   
    25    10    35 1   
    26    11    12 1   
    27    11    36 1   
    28    11    37 1   
    29    12    13 1   
    30    12    17 1   
    31    12    38 1   
    32    13    14 1   
    33    13    19 1   
    34    13    39 1   
    35    14    15 1   
    36    14    40 1   
    37    15    16 2   
    38    15    20 1   
    39    17    18 1   
    40    18    19 1   
    41    18    41 1   
    42    18    42 1   
    43    19    20 1   
    44    19    43 1   
    45    20    44 1   
@<TRIPOS>SUBSTRUCTURE
     1 BN7         1 TEMP              0 ****  ****    0 ROOT
