@<TRIPOS>MOLECULE
BNA
   45    48     1     0     0
SMALL
bcc


@<TRIPOS>ATOM
      1 OXT         2.8780    1.5650    1.5570 o         1 BNA     -0.836300
      2 C           2.5830    0.3540    1.3610 c         1 BNA      0.910600
      3 O           2.1130   -0.4060    2.2560 o         1 BNA     -0.836300
      4 CA          2.7590   -0.2230   -0.0760 c3        1 BNA     -0.180700
      5 CB1         3.8710    0.5310   -0.7920 c3        1 BNA     -0.045100
      6 C1A         3.7430    0.5410   -2.2770 ca        1 BNA     -0.021800
      7 C2A         2.7250    1.2930   -2.8380 ca        1 BNA     -0.152000
      8 C3A         2.5750    1.4030   -4.2350 ca        1 BNA     -0.115500
      9 C4A         3.4540    0.7690   -5.0780 ca        1 BNA     -0.153000
     10 C11         4.5080   -0.0190   -4.5470 ca        1 BNA     -0.034000
     11 C5A         5.4200   -0.6850   -5.4130 ca        1 BNA     -0.139500
     12 C6A         6.4270   -1.4650   -4.9050 ca        1 BNA     -0.133000
     13 C7A         6.5620   -1.6200   -3.5060 ca        1 BNA     -0.156500
     14 C8A         5.6970   -0.9850   -2.6490 ca        1 BNA     -0.099000
     15 C12         4.6510   -0.1510   -3.1380 ca        1 BNA     -0.036500
     16 CB2         3.0020   -1.7260   -0.0390 c3        1 BNA     -0.045100
     17 C1B         2.1370   -2.5010   -0.9750 ca        1 BNA     -0.021800
     18 C2B         2.6780   -3.0350   -2.1270 ca        1 BNA     -0.152000
     19 C3B         1.8970   -3.8070   -3.0150 ca        1 BNA     -0.115500
     20 C4B         0.5730   -4.0480   -2.7440 ca        1 BNA     -0.153000
     21 C13        -0.0240   -3.5150   -1.5700 ca        1 BNA     -0.034000
     22 C5B        -1.3940   -3.7540   -1.2750 ca        1 BNA     -0.139500
     23 C6B        -1.9660   -3.2330   -0.1410 ca        1 BNA     -0.133000
     24 C7B        -1.1930   -2.4480    0.7470 ca        1 BNA     -0.156500
     25 C8B         0.1340   -2.2010    0.4890 ca        1 BNA     -0.099000
     26 C14         0.7560   -2.7320   -0.6770 ca        1 BNA     -0.036500
     27 HA          1.7840   -0.0160   -0.5970 hc        1 BNA      0.049700
     28 HB11        3.8290    1.6040   -0.4330 hc        1 BNA      0.063450
     29 HB12        4.8650    0.1340   -0.4650 hc        1 BNA      0.063450
     30 H2A         2.0160    1.8190   -2.1770 ha        1 BNA      0.140000
     31 H3A         1.7480    2.0070   -4.6380 ha        1 BNA      0.117500
     32 H4A         3.3550    0.8550   -6.1700 ha        1 BNA      0.115000
     33 H5A         5.2950   -0.5620   -6.4980 ha        1 BNA      0.115000
     34 H6A         7.1330   -1.9800   -5.5730 ha        1 BNA      0.113500
     35 H7A         7.3660   -2.2600   -3.1140 ha        1 BNA      0.125000
     36 H8A         5.8040   -1.1300   -1.5620 ha        1 BNA      0.180000
     37 HB21        4.0800   -1.9420   -0.2720 hc        1 BNA      0.063450
     38 HB22        2.8160   -2.0920    1.0130 hc        1 BNA      0.063450
     39 H2B         3.7350   -2.8460   -2.3760 ha        1 BNA      0.140000
     40 H3B         2.3660   -4.2080   -3.9250 ha        1 BNA      0.117500
     41 H4B        -0.0440   -4.6490   -3.4250 ha        1 BNA      0.115000
     42 H5B        -1.9840   -4.3620   -1.9760 ha        1 BNA      0.115000
     43 H6B        -3.0250   -3.4160    0.0880 ha        1 BNA      0.113500
     44 H7B        -1.6670   -2.0330    1.6480 ha        1 BNA      0.125000
     45 H8B         0.7390   -1.5750    1.1840 ha        1 BNA      0.180000
@<TRIPOS>BOND
     1    1    2 1   
     2    2    3 1   
     3    2    4 1   
     4    4    5 1   
     5    4   16 1   
     6    4   27 1   
     7    5    6 1   
     8    5   28 1   
     9    5   29 1   
    10    6    7 ar  
    11    6   15 ar  
    12    7    8 ar  
    13    7   30 1   
    14    8    9 ar  
    15    8   31 1   
    16    9   10 ar  
    17    9   32 1   
    18   10   11 ar  
    19   10   15 ar  
    20   11   12 ar  
    21   11   33 1   
    22   12   13 ar  
    23   12   34 1   
    24   13   14 ar  
    25   13   35 1   
    26   14   15 ar  
    27   14   36 1   
    28   16   17 1   
    29   16   37 1   
    30   16   38 1   
    31   17   18 ar  
    32   17   26 ar  
    33   18   19 ar  
    34   18   39 1   
    35   19   20 ar  
    36   19   40 1   
    37   20   21 ar  
    38   20   41 1   
    39   21   22 ar  
    40   21   26 ar  
    41   22   23 ar  
    42   22   42 1   
    43   23   24 ar  
    44   23   43 1   
    45   24   25 ar  
    46   24   44 1   
    47   25   26 ar  
    48   25   45 1   
@<TRIPOS>SUBSTRUCTURE
     1 BNA         1 TEMP              0 ****  ****    0 ROOT
