@<TRIPOS>MOLECULE
molecule
   45    48     1     0     0
SMALL
bcc


@<TRIPOS>ATOM
      1 OXT          0.0000     0.0000     0.0000 o          1 BNA      -0.840300
      2 C            1.3420     0.0000     0.0000 c          1 BNA       0.888600
      3 O            1.9460     0.0000     1.0450 o          1 BNA      -0.840300
      4 CA           2.0950    -0.0000    -1.3040 c3         1 BNA      -0.165700
      5 CB1          3.3870     0.8030    -1.1470 c3         1 BNA      -0.029600
      6 C1A          4.0700     0.9250    -2.4860 ca         1 BNA      -0.025800
      7 C2A          3.7580     1.9540    -3.3200 ca         1 BNA      -0.146000
      8 C3A          4.3770     2.0850    -4.5620 ca         1 BNA      -0.120000
      9 C4A          5.3120     1.1860    -4.9750 ca         1 BNA      -0.145500
     10 C11          5.6600     0.1110    -4.1400 ca         1 BNA      -0.025000
     11 C5A          6.6200    -0.8360    -4.5340 ca         1 BNA      -0.137500
     12 C6A          6.9320    -1.8650    -3.7000 ca         1 BNA      -0.126500
     13 C7A          6.3130    -1.9950    -2.4580 ca         1 BNA      -0.147500
     14 C8A          5.3770    -1.0970    -2.0450 ca         1 BNA      -0.076000
     15 C12          5.0330    -0.0180    -2.8760 ca         1 BNA      -0.021000
     16 CB2          2.4320    -1.4380    -1.6990 c3         1 BNA      -0.029600
     17 C1B          1.1600    -2.2300    -1.8530 ca         1 BNA      -0.025800
     18 C2B          0.5340    -2.2880    -3.0610 ca         1 BNA      -0.146000
     19 C3B         -0.6440    -3.0140    -3.2240 ca         1 BNA      -0.120000
     20 C4B         -1.2030    -3.6860    -2.1800 ca         1 BNA      -0.145500
     21 C13         -0.5850    -3.6490    -0.9180 ca         1 BNA      -0.025000
     22 C5B         -1.1340    -4.3280     0.1820 ca         1 BNA      -0.137500
     23 C6B         -0.5070    -4.2690     1.3890 ca         1 BNA      -0.126500
     24 C7B          0.6710    -3.5430     1.5520 ca         1 BNA      -0.147500
     25 C8B          1.2290    -2.8720     0.5080 ca         1 BNA      -0.076000
     26 C14          0.6150    -2.9140    -0.7550 ca         1 BNA      -0.021000
     27 HA           1.4810     0.4510    -2.0750 hc         1 BNA       0.056700
     28 HB11         4.0450     0.2960    -0.4520 hc         1 BNA       0.048700
     29 HB12         3.1540     1.7910    -0.7690 hc         1 BNA       0.048700
     30 H2A          3.0160     2.6820    -3.0150 ha         1 BNA       0.126500
     31 H3A          4.1100     2.9130    -5.2070 ha         1 BNA       0.110000
     32 H4A          5.7860     1.3000    -5.9420 ha         1 BNA       0.113500
     33 H5A          7.1090    -0.7470    -5.4970 ha         1 BNA       0.114500
     34 H6A          7.6730    -2.5930    -4.0050 ha         1 BNA       0.108500
     35 H7A          6.5790    -2.8230    -1.8120 ha         1 BNA       0.120000
     36 H8A          4.9040    -1.2100    -1.0770 ha         1 BNA       0.160000
     37 HB21         3.0470    -1.8890    -0.9290 hc         1 BNA       0.048700
     38 HB22         2.9730    -1.4370    -2.6380 hc         1 BNA       0.048700
     39 H2B          0.9580    -1.7620    -3.9080 ha         1 BNA       0.126500
     40 H3B         -1.1220    -3.0440    -4.1950 ha         1 BNA       0.110000
     41 H4B         -2.1190    -4.2460    -2.3210 ha         1 BNA       0.113500
     42 H5B         -2.0490    -4.8970     0.0700 ha         1 BNA       0.114500
     43 H6B         -0.9310    -4.7950     2.2370 ha         1 BNA       0.108500
     44 H7B          1.1500    -3.5120     2.5230 ha         1 BNA       0.120000
     45 H8B          2.1450    -2.3110     0.6500 ha         1 BNA       0.160000
@<TRIPOS>BOND
     1     1     2 1
     2     2     3 1
     3     2     4 1
     4     4     5 1
     5     4    16 1
     6     4    27 1
     7     5     6 1
     8     5    28 1
     9     5    29 1
    10     6     7 ar
    11     6    15 ar
    12     7     8 ar
    13     7    30 1
    14     8     9 ar
    15     8    31 1
    16     9    10 ar
    17     9    32 1
    18    10    11 ar
    19    10    15 ar
    20    11    12 ar
    21    11    33 1
    22    12    13 ar
    23    12    34 1
    24    13    14 ar
    25    13    35 1
    26    14    15 ar
    27    14    36 1
    28    16    17 1
    29    16    37 1
    30    16    38 1
    31    17    18 ar
    32    17    26 ar
    33    18    19 ar
    34    18    39 1
    35    19    20 ar
    36    19    40 1
    37    20    21 ar
    38    20    41 1
    39    21    22 ar
    40    21    26 ar
    41    22    23 ar
    42    22    42 1
    43    23    24 ar
    44    23    43 1
    45    24    25 ar
    46    24    44 1
    47    25    26 ar
    48    25    45 1
@<TRIPOS>SUBSTRUCTURE
     1 BNA         1 TEMP              0 ****  ****    0 ROOT
