@<TRIPOS>MOLECULE
molecule
   87    92     1     0     0
SMALL
bcc


@<TRIPOS>ATOM
      1 C1           0.0000     0.0000     0.0000 ca         1 BNB      -0.023800
      2 C2           1.3940     0.0000     0.0000 ca         1 BNB      -0.132000
      3 C3           2.0850     0.0000     1.1950 ca         1 BNB      -0.123000
      4 C4           1.3970     0.0010     2.3940 ca         1 BNB      -0.118000
      5 C5           0.0080     0.0020     2.4040 ca         1 BNB       0.051600
      6 C6          -0.6930     0.0020     1.2080 ca         1 BNB      -0.079300
      7 C8          -2.2000     0.0020     1.2150 c3         1 BNB      -0.046800
      8 C9          -0.1730     0.6520     4.6840 c          1 BNB       0.679700
      9 C12         -2.2290     0.1820     6.0070 ca         1 BNB      -0.073500
     10 C19         -2.4840    -0.0310    12.0660 c3         1 BNB      -0.085900
     11 C18         -1.7850    -0.1850    10.7140 c3         1 BNB       0.201300
     12 C20         -3.9160    -0.5620    11.9600 c3         1 BNB      -0.081400
     13 C21         -4.6530     0.1980    10.8530 c3         1 BNB      -0.085900
     14 C22         -3.8910     0.0360     9.5350 c3         1 BNB       0.201300
     15 C23         -0.7430     0.0060    -1.2850 cc         1 BNB       0.121400
     16 C16         -0.4300     1.4310     7.0350 ca         1 BNB      -0.073500
     17 C15         -1.1590     1.5160     8.2000 ca         1 BNB      -0.166500
     18 C24         -0.5050     0.9960    -2.1880 cd         1 BNB      -0.089400
     19 N7          -0.6830     0.0030     3.6200 ns         1 BNB      -0.473100
     20 C10         -0.9570     0.7570     5.9300 ca         1 BNB      -0.173600
     21 O11          0.9320     1.1520     4.6190 o          1 BNB      -0.601100
     22 C13         -2.9580     0.2790     7.1700 ca         1 BNB      -0.166500
     23 C14         -2.4280     0.9470     8.2710 ca         1 BNB       0.189600
     24 N17         -2.5270     0.5600     9.6890 nh         1 BNB      -0.709000
     25 N25         -1.1700     1.0320    -3.3740 n          1 BNB      -0.304000
     26 C26         -2.0750     0.0680    -3.6530 c          1 BNB       0.554200
     27 C27         -2.3080    -0.9860    -2.6590 cc         1 BNB       0.582200
     28 N28         -1.6300    -0.9680    -1.5310 nd         1 BNB      -0.610300
     29 O29         -2.6850     0.0740    -4.7080 o          1 BNB      -0.644500
     30 C30         -0.9070     2.1020    -4.3390 c3         1 BNB       0.089300
     31 N31         -3.2270    -1.9980    -2.9090 nu         1 BNB      -0.700600
     32 C32         -3.4410    -2.9930    -1.9610 ca         1 BNB       0.177600
     33 C33         -4.7050    -3.5590    -1.8230 ca         1 BNB      -0.164000
     34 C34         -4.9210    -4.5440    -0.8860 ca         1 BNB      -0.077000
     35 C35         -3.8690    -4.9760    -0.0730 ca         1 BNB      -0.171600
     36 C36         -2.6010    -4.4050    -0.2140 ca         1 BNB      -0.077000
     37 C37         -2.3900    -3.4240    -1.1570 ca         1 BNB      -0.164000
     38 C38         -4.0960    -6.0310     0.9330 c          1 BNB       0.680700
     39 N39         -3.1690    -6.9900     1.1250 n          1 BNB      -0.487800
     40 O40         -5.1200    -6.0350     1.5880 o          1 BNB      -0.613100
     41 C41         -3.4170    -8.1050     2.0520 c3         1 BNB       0.098500
     42 C42         -3.1260    -9.4200     1.3200 c3         1 BNB       0.144800
     43 N43         -1.7710    -9.3720     0.7550 n3         1 BNB      -0.732600
     44 C44         -1.6520    -8.3090    -0.2530 c3         1 BNB       0.144800
     45 C45         -1.8850    -6.9520     0.4090 c3         1 BNB       0.098500
     46 C46         -1.3890   -10.6750     0.1940 c3         1 BNB       0.152100
     47 H1           1.9350    -0.0010    -0.9380 ha         1 BNB       0.129000
     48 H2           3.1680    -0.0000     1.1930 ha         1 BNB       0.135000
     49 H3           1.9440     0.0010     3.3300 ha         1 BNB       0.170000
     50 H4          -2.5570     0.6950     1.9670 hc         1 BNB       0.047700
     51 H5          -2.5660     0.3050     0.2420 hc         1 BNB       0.047700
     52 H6          -2.5600    -0.9940     1.4420 hc         1 BNB       0.047700
     53 H8          -1.9450    -0.5960    12.8170 hc         1 BNB       0.050200
     54 H9          -2.5080     1.0170    12.3420 hc         1 BNB       0.050200
     55 H10         -0.7770     0.2060    10.7830 h1         1 BNB       0.037950
     56 H11         -1.7530    -1.2340    10.4430 h1         1 BNB       0.037950
     57 H12         -3.8930    -1.6180    11.7180 hc         1 BNB       0.041200
     58 H13         -4.4280    -0.4120    12.9030 hc         1 BNB       0.041200
     59 H14         -5.6530    -0.2040    10.7440 hc         1 BNB       0.050200
     60 H15         -4.7060     1.2490    11.1120 hc         1 BNB       0.050200
     61 H16         -4.4020     0.5860     8.7550 h1         1 BNB       0.037950
     62 H17         -3.8450    -1.0140     9.2740 h1         1 BNB       0.037950
     63 H18          0.5580     1.8730     6.9800 ha         1 BNB       0.143000
     64 H19         -0.7500     2.0360     9.0570 ha         1 BNB       0.147500
     65 H20          0.2210     1.7660    -1.9580 h4         1 BNB       0.167000
     66 H21         -1.5320    -0.5200     3.7130 hn         1 BNB       0.329500
     67 H22         -3.9440    -0.1640     7.2290 ha         1 BNB       0.147500
     68 H23         -0.1840     2.7940    -3.9240 h1         1 BNB       0.059367
     69 H24         -1.8290     2.6300    -4.5540 h1         1 BNB       0.059367
     70 H25         -0.5140     1.6750    -5.2540 h1         1 BNB       0.059367
     71 H26         -3.8020    -1.9570    -3.7270 hn         1 BNB       0.473800
     72 H27         -5.5200    -3.2240    -2.4530 ha         1 BNB       0.153500
     73 H28         -5.9050    -4.9850    -0.7790 ha         1 BNB       0.147000
     74 H29         -1.7830    -4.7390     0.4130 ha         1 BNB       0.147000
     75 H30         -1.4080    -2.9810    -1.2660 ha         1 BNB       0.153500
     76 H31         -4.4520    -8.0880     2.3720 h1         1 BNB       0.066700
     77 H32         -2.7630    -8.0150     2.9110 h1         1 BNB       0.066700
     78 H33         -3.8450    -9.5550     0.5220 h1         1 BNB       0.041950
     79 H34         -3.1960   -10.2440     2.0200 h1         1 BNB       0.041950
     80 H36         -0.6590    -8.3330    -0.6850 h1         1 BNB       0.041950
     81 H37         -2.3920    -8.4640    -1.0280 h1         1 BNB       0.041950
     82 H38         -1.0850    -6.7490     1.1100 h1         1 BNB       0.066700
     83 H39         -1.9160    -6.1800    -0.3500 h1         1 BNB       0.066700
     84 H40         -2.0630   -10.9320    -0.6150 h1         1 BNB       0.033033
     85 H41         -1.4470   -11.4320     0.9670 h1         1 BNB       0.033033
     86 H42         -0.3750   -10.6220    -0.1840 h1         1 BNB       0.033033
     87 H7          -2.6420    -0.3380     5.1510 ha         1 BNB       0.143000
@<TRIPOS>BOND
     1    46    43 1
     2    43    42 1
     3    43    44 1
     4    42    41 1
     5    44    45 1
     6    41    39 1
     7    45    39 1
     8    39    38 1
     9    38    40 2
    10    38    35 1
    11    36    35 ar
    12    36    37 ar
    13    35    34 ar
    14    37    32 ar
    15    34    33 ar
    16    32    33 ar
    17    32    31 1
    18    31    27 1
    19    27    28 2
    20    27    26 1
    21    29    26 2
    22    28    15 1
    23    26    25 1
    24    15     1 1
    25    15    18 2
    26    25    18 1
    27    25    30 1
    28     2     1 ar
    29     2     3 ar
    30     1     6 ar
    31     3     4 ar
    32     6     7 1
    33     6     5 ar
    34     4     5 ar
    35     5    19 1
    36    19     8 1
    37     8    21 2
    38     8    20 1
    39    16    20 ar
    40    16    17 ar
    41    20     9 ar
    42    17    23 ar
    43     9    22 ar
    44    23    22 ar
    45    23    24 1
    46    14    13 1
    47    14    24 1
    48    13    12 1
    49    24    11 1
    50    12    10 1
    51    11    10 1
    52     2    47 1
    53     3    48 1
    54     4    49 1
    55     7    50 1
    56     7    51 1
    57     7    52 1
    58     9    87 1
    59    10    53 1
    60    10    54 1
    61    11    55 1
    62    11    56 1
    63    12    57 1
    64    12    58 1
    65    13    59 1
    66    13    60 1
    67    14    61 1
    68    14    62 1
    69    16    63 1
    70    17    64 1
    71    18    65 1
    72    19    66 1
    73    22    67 1
    74    30    68 1
    75    30    69 1
    76    30    70 1
    77    31    71 1
    78    33    72 1
    79    34    73 1
    80    36    74 1
    81    37    75 1
    82    41    76 1
    83    41    77 1
    84    42    78 1
    85    42    79 1
    86    44    80 1
    87    44    81 1
    88    45    82 1
    89    45    83 1
    90    46    84 1
    91    46    85 1
    92    46    86 1
@<TRIPOS>SUBSTRUCTURE
     1 BNB         1 TEMP              0 ****  ****    0 ROOT
