@<TRIPOS>MOLECULE
BNB
   87    92     1     0     0
SMALL
bcc


@<TRIPOS>ATOM
      1 C1           0.0000     0.0000     0.0000 ca         1 BNB      -0.027800
      2 C2           1.3940     0.0000     0.0000 ca         1 BNB      -0.105000
      3 C3           2.0850     0.0000     1.1950 ca         1 BNB      -0.093000
      4 C4           1.3970     0.0010     2.3940 ca         1 BNB      -0.099000
      5 C5           0.0080     0.0020     2.4040 ca         1 BNB      -0.092400
      6 C6          -0.6930     0.0020     1.2080 ca         1 BNB      -0.083300
      7 C8          -2.2000     0.0020     1.2150 c3         1 BNB       0.050200
      8 C9          -0.1730     0.6520     4.6840 c          1 BNB       0.590700
      9 C12         -2.2290     0.1820     6.0070 ca         1 BNB      -0.043000
     10 C19         -2.4840    -0.0310    12.0660 c3         1 BNB      -0.030400
     11 C18         -1.7850    -0.1850    10.7140 c3         1 BNB       0.161300
     12 C20         -3.9160    -0.5620    11.9600 c3         1 BNB      -0.025400
     13 C21         -4.6530     0.1980    10.8530 c3         1 BNB      -0.030400
     14 C22         -3.8910     0.0360     9.5350 c3         1 BNB       0.161300
     15 C23         -0.7430     0.0060    -1.2850 cc         1 BNB       0.111400
     16 C16         -0.4300     1.4310     7.0350 ca         1 BNB      -0.043000
     17 C15         -1.1590     1.5160     8.2000 ca         1 BNB      -0.151500
     18 C24         -0.5050     0.9960    -2.1880 cd         1 BNB      -0.247400
     19 N7          -0.6830     0.0030     3.6200 ns         1 BNB      -0.036100
     20 C10         -0.9570     0.7570     5.9300 ca         1 BNB      -0.184600
     21 O11          0.9320     1.1520     4.6190 o          1 BNB      -0.642100
     22 C13         -2.9580     0.2790     7.1700 ca         1 BNB      -0.151500
     23 C14         -2.4280     0.9470     8.2710 ca         1 BNB       0.101600
     24 N17         -2.5270     0.5600     9.6890 nh         1 BNB      -0.438000
     25 N25         -1.1700     1.0320    -3.3740 n          1 BNB       0.139000
     26 C26         -2.0750     0.0680    -3.6530 c          1 BNB       0.462200
     27 C27         -2.3080    -0.9860    -2.6590 cd         1 BNB       0.371200
     28 N28         -1.6300    -0.9680    -1.5310 nc         1 BNB      -0.511300
     29 O29         -2.6850     0.0740    -4.7080 o          1 BNB      -0.696500
     30 C30         -0.9070     2.1020    -4.3390 c3         1 BNB       0.053300
     31 N31         -3.2270    -1.9980    -2.9090 nu         1 BNB      -0.212600
     32 C32         -3.4410    -2.9930    -1.9610 ca         1 BNB       0.010600
     33 C33         -4.7050    -3.5590    -1.8230 ca         1 BNB      -0.141500
     34 C34         -4.9210    -4.5440    -0.8860 ca         1 BNB      -0.051000
     35 C35         -3.8690    -4.9760    -0.0730 ca         1 BNB      -0.176600
     36 C36         -2.6010    -4.4050    -0.2140 ca         1 BNB      -0.051000
     37 C37         -2.3900    -3.4240    -1.1570 ca         1 BNB      -0.141500
     38 C38         -4.0960    -6.0310     0.9330 c          1 BNB       0.615700
     39 N39         -3.1690    -6.9900     1.1250 n          1 BNB      -0.147800
     40 O40         -5.1200    -6.0350     1.5880 o          1 BNB      -0.653100
     41 C41         -3.4170    -8.1050     2.0520 c3         1 BNB       0.028000
     42 C42         -3.1260    -9.4200     1.3200 c3         1 BNB       0.138800
     43 N43         -1.7710    -9.3720     0.7550 n3         1 BNB      -0.545600
     44 C44         -1.6520    -8.3090    -0.2530 c3         1 BNB       0.138800
     45 C45         -1.8850    -6.9520     0.4090 c3         1 BNB       0.028000
     46 C46         -1.3890   -10.6750     0.1940 c3         1 BNB       0.189100
     47 H1           1.9350    -0.0010    -0.9380 ha         1 BNB       0.103000
     48 H2           3.1680    -0.0000     1.1930 ha         1 BNB       0.105000
     49 H3           1.9440     0.0010     3.3300 ha         1 BNB       0.150000
     50 H4          -2.5570     0.6950     1.9670 hc         1 BNB       0.014700
     51 H5          -2.5660     0.3050     0.2420 hc         1 BNB       0.014700
     52 H6          -2.5600    -0.9940     1.4420 hc         1 BNB       0.014700
     53 H8          -1.9450    -0.5960    12.8170 hc         1 BNB       0.020200
     54 H9          -2.5080     1.0170    12.3420 hc         1 BNB       0.020200
     55 H10         -0.7770     0.2060    10.7830 h1         1 BNB       0.014950
     56 H11         -1.7530    -1.2340    10.4430 h1         1 BNB       0.014950
     57 H12         -3.8930    -1.6180    11.7180 hc         1 BNB       0.013200
     58 H13         -4.4280    -0.4120    12.9030 hc         1 BNB       0.013200
     59 H14         -5.6530    -0.2040    10.7440 hc         1 BNB       0.020200
     60 H15         -4.7060     1.2490    11.1120 hc         1 BNB       0.020200
     61 H16         -4.4020     0.5860     8.7550 h1         1 BNB       0.014950
     62 H17         -3.8450    -1.0140     9.2740 h1         1 BNB       0.014950
     63 H18          0.5580     1.8730     6.9800 ha         1 BNB       0.114500
     64 H19         -0.7500     2.0360     9.0570 ha         1 BNB       0.125000
     65 H20          0.2210     1.7660    -1.9580 h4         1 BNB       0.147000
     66 H21         -1.5320    -0.5200     3.7130 hn         1 BNB       0.178500
     67 H22         -3.9440    -0.1640     7.2290 ha         1 BNB       0.125000
     68 H23         -0.1840     2.7940    -3.9240 h1         1 BNB       0.026700
     69 H24         -1.8290     2.6300    -4.5540 h1         1 BNB       0.026700
     70 H25         -0.5140     1.6750    -5.2540 h1         1 BNB       0.026700
     71 H26         -3.8020    -1.9570    -3.7270 hn         1 BNB       0.302800
     72 H27         -5.5200    -3.2240    -2.4530 ha         1 BNB       0.130000
     73 H28         -5.9050    -4.9850    -0.7790 ha         1 BNB       0.121000
     74 H29         -1.7830    -4.7390     0.4130 ha         1 BNB       0.121000
     75 H30         -1.4080    -2.9810    -1.2660 ha         1 BNB       0.130000
     76 H31         -4.4520    -8.0880     2.3720 h1         1 BNB       0.043700
     77 H32         -2.7630    -8.0150     2.9110 h1         1 BNB       0.043700
     78 H33         -3.8450    -9.5550     0.5220 h1         1 BNB       0.015700
     79 H34         -3.1960   -10.2440     2.0200 h1         1 BNB       0.015700
     80 H36         -0.6590    -8.3330    -0.6850 h1         1 BNB       0.015700
     81 H37         -2.3920    -8.4640    -1.0280 h1         1 BNB       0.015700
     82 H38         -1.0850    -6.7490     1.1100 h1         1 BNB       0.043700
     83 H39         -1.9160    -6.1800    -0.3500 h1         1 BNB       0.043700
     84 H40         -2.0630   -10.9320    -0.6150 h1         1 BNB       0.001367
     85 H41         -1.4470   -11.4320     0.9670 h1         1 BNB       0.001367
     86 H42         -0.3750   -10.6220    -0.1840 h1         1 BNB       0.001367
     87 H7          -2.6420    -0.3380     5.1510 ha         1 BNB       0.114500
@<TRIPOS>BOND
     1     1     2 ar  
     2     1     6 ar  
     3     1    15 1   
     4     2     3 ar  
     5     2    47 1   
     6     3     4 ar  
     7     3    48 1   
     8     4     5 ar  
     9     4    49 1   
    10     5     6 ar  
    11     5    19 1   
    12     6     7 1   
    13     7    50 1   
    14     7    51 1   
    15     7    52 1   
    16     8    19 1   
    17     8    20 1   
    18     8    21 2   
    19     9    20 ar  
    20     9    22 ar  
    21     9    87 1   
    22    10    11 1   
    23    10    12 1   
    24    10    53 1   
    25    10    54 1   
    26    11    24 1   
    27    11    55 1   
    28    11    56 1   
    29    12    13 1   
    30    12    57 1   
    31    12    58 1   
    32    13    14 1   
    33    13    59 1   
    34    13    60 1   
    35    14    24 1   
    36    14    61 1   
    37    14    62 1   
    38    15    18 2   
    39    15    28 1   
    40    16    17 ar  
    41    16    20 ar  
    42    16    63 1   
    43    17    23 ar  
    44    17    64 1   
    45    18    25 1   
    46    18    65 1   
    47    19    66 1   
    48    22    23 ar  
    49    22    67 1   
    50    23    24 1   
    51    25    26 1   
    52    25    30 1   
    53    26    27 1   
    54    26    29 2   
    55    27    28 2   
    56    27    31 1   
    57    30    68 1   
    58    30    69 1   
    59    30    70 1   
    60    31    32 1   
    61    31    71 1   
    62    32    33 ar  
    63    32    37 ar  
    64    33    34 ar  
    65    33    72 1   
    66    34    35 ar  
    67    34    73 1   
    68    35    36 ar  
    69    35    38 1   
    70    36    37 ar  
    71    36    74 1   
    72    37    75 1   
    73    38    39 1   
    74    38    40 2   
    75    39    41 1   
    76    39    45 1   
    77    41    42 1   
    78    41    76 1   
    79    41    77 1   
    80    42    43 1   
    81    42    78 1   
    82    42    79 1   
    83    43    44 1   
    84    43    46 1   
    85    44    45 1   
    86    44    80 1   
    87    44    81 1   
    88    45    82 1   
    89    45    83 1   
    90    46    84 1   
    91    46    85 1   
    92    46    86 1   
@<TRIPOS>SUBSTRUCTURE
     1 BNB         1 TEMP              0 ****  ****    0 ROOT
