@<TRIPOS>MOLECULE
molecule
   66    69     1     0     0
SMALL
bcc


@<TRIPOS>ATOM
      1 C1           0.0000     0.0000     0.0000 c3         1 BNC      -0.068400
      2 C2           1.5220     0.0000     0.0000 c3         1 BNC      -0.092400
      3 C3           2.0620     0.0000     1.4230 c3         1 BNC       0.153100
      4 O3           3.4840     0.0530     1.3950 oh         1 BNC      -0.603800
      5 C4           1.5180     1.1850     2.2140 c3         1 BNC      -0.087400
      6 C5          -0.0250     1.2370     2.2150 c3         1 BNC      -0.041700
      7 C6          -0.5410     2.4370     3.0350 c3         1 BNC      -0.094400
      8 C7          -0.4130     3.7910     2.3340 c3         1 BNC       0.161100
      9 O7           0.9550     4.1860     2.3610 oh         1 BNC      -0.600800
     10 C8          -0.9740     3.7680     0.8990 c3         1 BNC      -0.037700
     11 C9          -0.3940     2.5790     0.0620 c3         1 BNC      -0.042700
     12 C10         -0.6370     1.1920     0.7750 c3         1 BNC      -0.044000
     13 C11         -0.8760     2.6140    -1.4200 c3         1 BNC      -0.092400
     14 C12         -0.7330     3.9850    -2.1130 c3         1 BNC       0.161100
     15 O12          0.6410     4.2200    -2.4150 oh         1 BNC      -0.601800
     16 C13         -1.3420     5.1180    -1.2610 c3         1 BNC      -0.047000
     17 C14         -0.7060     5.0830     0.1470 c3         1 BNC      -0.063700
     18 C15         -1.1670     6.3920     0.7860 c3         1 BNC      -0.075400
     19 C16         -1.2150     7.3880    -0.3870 c3         1 BNC      -0.077400
     20 C17         -0.9490     6.5630    -1.6670 c3         1 BNC      -0.059700
     21 C18         -2.8870     4.9510    -1.2450 c3         1 BNC      -0.080100
     22 C19         -2.1510     0.8690     0.8750 c3         1 BNC      -0.087100
     23 C20         -1.6420     7.1340    -2.8950 c3         1 BNC      -0.058700
     24 C21         -1.3840     6.2360    -4.1090 c3         1 BNC      -0.090100
     25 C22         -1.1800     8.5850    -3.1390 c3         1 BNC      -0.078400
     26 C23         -1.8720     9.2620    -4.3130 c3         1 BNC      -0.089100
     27 H1C1        -0.3430    -0.9240     0.4500 hc         1 BNC       0.039200
     28 H1C2        -0.3430     0.0370    -1.0270 hc         1 BNC       0.039200
     29 H2C1         1.8770     0.8850    -0.5150 hc         1 BNC       0.052200
     30 H2C2         1.8770    -0.8850    -0.5140 hc         1 BNC       0.052200
     31 H3           1.7510    -0.9150     1.9120 h1         1 BNC       0.018700
     32 HA           3.8360    -0.7430     1.7590 ho         1 BNC       0.398000
     33 H4C1         1.8660     1.1100     3.2370 hc         1 BNC       0.061700
     34 H4C2         1.8980     2.1010     1.7760 hc         1 BNC       0.061700
     35 H5          -0.3650     0.3430     2.7240 hc         1 BNC       0.034700
     36 H6C1         0.0150     2.4790     3.9630 hc         1 BNC       0.042200
     37 H6C2        -1.5870     2.2680     3.2630 hc         1 BNC       0.042200
     38 H7          -0.9860     4.5140     2.9020 h1         1 BNC       0.022700
     39 HB           1.1250     4.6760     3.1490 ho         1 BNC       0.398000
     40 H8          -2.0470     3.6360     0.9640 hc         1 BNC       0.047700
     41 H9           0.6800     2.7210     0.0350 hc         1 BNC       0.073700
     42 H11         -1.9200     2.3270    -1.4450 hc         1 BNC       0.041700
     43 H111        -0.3020     1.8870    -1.9820 hc         1 BNC       0.041700
     44 H112        -1.2810     3.9430    -3.0470 h1         1 BNC       0.027700
     45 H14          0.3670     5.1550     0.0160 hc         1 BNC       0.080700
     46 H151        -2.1530     6.2740     1.2200 hc         1 BNC       0.040200
     47 H152        -0.4540     6.7210     1.5310 hc         1 BNC       0.040200
     48 H161        -2.1920     7.8520    -0.4410 hc         1 BNC       0.041700
     49 H162        -0.4450     8.1410    -0.2650 hc         1 BNC       0.041700
     50 H17          0.1180     6.5740    -1.8510 hc         1 BNC       0.067700
     51 H181        -3.3520     5.9080    -1.0410 hc         1 BNC       0.036700
     52 H182        -3.2210     4.5850    -2.2090 hc         1 BNC       0.036700
     53 H183        -3.1660     4.2430    -0.4740 hc         1 BNC       0.036700
     54 H191        -2.5320     0.6150    -0.1070 hc         1 BNC       0.033700
     55 H192        -2.6810     1.7350     1.2540 hc         1 BNC       0.033700
     56 H193        -2.2990     0.0320     1.5470 hc         1 BNC       0.033700
     57 H20         -2.7090     7.1470    -2.7060 hc         1 BNC       0.042700
     58 H211        -1.8470     5.2690    -3.9480 hc         1 BNC       0.034033
     59 H212        -0.3170     6.1070    -4.2440 hc         1 BNC       0.034033
     60 H213        -1.8070     6.6950    -4.9950 hc         1 BNC       0.034033
     61 H221        -0.1130     8.5800    -3.3230 hc         1 BNC       0.039700
     62 H222        -1.3740     9.1630    -2.2440 hc         1 BNC       0.039700
     63 H231        -2.9090     8.9510    -4.3500 hc         1 BNC       0.032367
     64 H232        -1.8210    10.3370    -4.1900 hc         1 BNC       0.032367
     65 H233        -1.3770     8.9800    -5.2350 hc         1 BNC       0.032367
     66 HO1          0.8390     3.8760    -3.2700 ho         1 BNC       0.399000
@<TRIPOS>BOND
     1     1     2 1
     2     1    12 1
     3     1    27 1
     4     1    28 1
     5     2     3 1
     6     2    29 1
     7     2    30 1
     8     3     4 1
     9     3     5 1
    10     3    31 1
    11     4    32 1
    12     5     6 1
    13     5    33 1
    14     5    34 1
    15     6     7 1
    16     6    12 1
    17     6    35 1
    18     7     8 1
    19     7    36 1
    20     7    37 1
    21     8     9 1
    22     8    10 1
    23     8    38 1
    24     9    39 1
    25    10    11 1
    26    10    17 1
    27    10    40 1
    28    11    12 1
    29    11    13 1
    30    11    41 1
    31    12    22 1
    32    13    14 1
    33    13    42 1
    34    13    43 1
    35    14    15 1
    36    14    16 1
    37    14    44 1
    38    16    17 1
    39    16    20 1
    40    16    21 1
    41    17    18 1
    42    17    45 1
    43    18    19 1
    44    18    46 1
    45    18    47 1
    46    19    20 1
    47    19    48 1
    48    19    49 1
    49    20    23 1
    50    20    50 1
    51    21    51 1
    52    21    52 1
    53    21    53 1
    54    22    54 1
    55    22    55 1
    56    22    56 1
    57    23    24 1
    58    23    25 1
    59    23    57 1
    60    24    58 1
    61    24    59 1
    62    24    60 1
    63    25    26 1
    64    25    61 1
    65    25    62 1
    66    26    63 1
    67    26    64 1
    68    26    65 1
    69    66    15 1
@<TRIPOS>SUBSTRUCTURE
     1 BNC         1 TEMP              0 ****  ****    0 ROOT
