@<TRIPOS>MOLECULE
molecule
   55    56     1     0     0
SMALL
bcc


@<TRIPOS>ATOM
      1 CY1          0.0000     0.0000     0.0000 c3         1 BND       0.112700
      2 CX1          1.3670     1.2640     2.0340 c          1 BND       0.846600
      3 O1A          0.3410     1.2600     2.6740 o          1 BND      -0.823800
      4 O1B          2.0880     2.3900     1.9330 o          1 BND      -0.823800
      5 CX2          1.8430     0.0000     1.3680 c3         1 BND       0.222600
      6 OX2          1.4290     0.0000     0.0000 os         1 BND      -0.393600
      7 CX3          3.3700    -0.0670     1.4380 c3         1 BND      -0.100400
      8 CX4          3.8050    -0.0320     2.9070 c3         1 BND       0.131100
      9 OX4          5.2150    -0.2420     2.9940 oh         1 BND      -0.604800
     10 CX5          3.0680    -1.1420     3.6630 c3         1 BND       0.080700
     11 NX5          3.3520    -1.0320     5.0960 ns         1 BND      -0.578900
     12 C10          4.4070    -1.6830     5.6250 c          1 BND       0.652100
     13 O10          5.1200    -2.3590     4.9160 o          1 BND      -0.596100
     14 C11          4.7000    -1.5700     7.0990 c3         1 BND      -0.174100
     15 CX6          1.5620    -0.9940     3.4240 c3         1 BND       0.128100
     16 OX6          1.2790    -1.1280     2.0340 os         1 BND      -0.410600
     17 CX7          0.8160    -2.0790     4.2020 c3         1 BND       0.135100
     18 OX7          1.2440    -3.3660     3.7540 oh         1 BND      -0.587800
     19 CX8         -0.6880    -1.9320     3.9640 c3         1 BND       0.115100
     20 OX8         -1.1170    -0.6450     4.4120 oh         1 BND      -0.557800
     21 CX9         -1.4350    -3.0160     4.7410 c3         1 BND       0.066000
     22 NX6         -2.8760    -2.8760     4.5140 ns         1 BND      -0.571900
     23 C12         -3.7370    -3.7290     5.1020 c          1 BND       0.669700
     24 O12         -3.3190    -4.6150     5.8220 o          1 BND      -0.625100
     25 C1G         -5.1910    -3.5870     4.8740 ca         1 BND      -0.141600
     26 CD1         -6.0860    -4.4690     5.4810 ca         1 BND      -0.086000
     27 CE1         -7.4410    -4.3300     5.2630 ca         1 BND      -0.142000
     28 CD2         -5.6750    -2.5680     4.0520 ca         1 BND      -0.086000
     29 CE2         -7.0310    -2.4440     3.8380 ca         1 BND      -0.142000
     30 C1Z         -7.9140    -3.3220     4.4440 ca         1 BND      -0.114000
     31 HY11        -0.3610    -0.9020     0.4790 h1         1 BND       0.033700
     32 HY12        -0.3610     0.0370    -1.0210 h1         1 BND       0.033700
     33 HY13        -0.3610     0.8660     0.5420 h1         1 BND       0.033700
     34 HX31         3.7130    -0.9870     0.9810 hc         1 BND       0.061700
     35 HX32         3.7930     0.7830     0.9150 hc         1 BND       0.061700
     36 HX4          3.5490     0.9290     3.3360 h1         1 BND       0.070700
     37 HA           5.6660     0.5650     2.8080 ho         1 BND       0.393000
     38 HX5          3.3970    -2.1070     3.2970 h1         1 BND       0.103700
     39 HB           2.7880    -0.4400     5.6730 hn         1 BND       0.306500
     40 H111         5.6870    -1.9660     7.3020 hc         1 BND       0.050700
     41 H112         3.9630    -2.1330     7.6580 hc         1 BND       0.050700
     42 H113         4.6600    -0.5290     7.3960 hc         1 BND       0.050700
     43 HX6          1.2410    -0.0160     3.7630 h1         1 BND       0.125700
     44 HX7          1.0270    -1.9760     5.2590 h1         1 BND       0.024700
     45 HC           1.4020    -3.9210     4.4990 ho         1 BND       0.389000
     46 HX8         -0.8980    -2.0350     2.9070 h1         1 BND       0.114700
     47 HD          -1.2390    -0.6620     5.3470 ho         1 BND       0.381000
     48 HX91        -1.1100    -3.9930     4.4020 h1         1 BND       0.053200
     49 HX92        -1.2250    -2.9130     5.7990 h1         1 BND       0.053200
     50 HE          -3.2190    -2.1570     3.9090 hn         1 BND       0.329500
     51 HD1         -5.7180    -5.2600     6.1230 ha         1 BND       0.146500
     52 HE1         -8.1370    -5.0140     5.7350 ha         1 BND       0.130000
     53 HD2         -4.9850    -1.8800     3.5780 ha         1 BND       0.146500
     54 HE2         -7.4080    -1.6540     3.1990 ha         1 BND       0.130000
     55 H1Z         -8.9790    -3.2190     4.2750 ha         1 BND       0.125000
@<TRIPOS>BOND
     1     1     6 1
     2     1    31 1
     3     1    32 1
     4     1    33 1
     5     2     3 1
     6     2     4 1
     7     2     5 1
     8     5     6 1
     9     5     7 1
    10     5    16 1
    11     7     8 1
    12     7    34 1
    13     7    35 1
    14     8     9 1
    15     8    10 1
    16     8    36 1
    17     9    37 1
    18    10    11 1
    19    10    15 1
    20    10    38 1
    21    11    12 1
    22    11    39 1
    23    12    13 2
    24    12    14 1
    25    14    40 1
    26    14    41 1
    27    14    42 1
    28    15    16 1
    29    15    17 1
    30    15    43 1
    31    17    18 1
    32    17    19 1
    33    17    44 1
    34    18    45 1
    35    19    20 1
    36    19    21 1
    37    19    46 1
    38    20    47 1
    39    21    22 1
    40    21    48 1
    41    21    49 1
    42    22    23 1
    43    22    50 1
    44    23    24 2
    45    23    25 1
    46    25    26 ar
    47    25    28 ar
    48    26    27 ar
    49    26    51 1
    50    27    30 ar
    51    27    52 1
    52    28    29 ar
    53    28    53 1
    54    29    30 ar
    55    29    54 1
    56    30    55 1
@<TRIPOS>SUBSTRUCTURE
     1 BND         1 TEMP              0 ****  ****    0 ROOT
