@<TRIPOS>MOLECULE
molecule
   69    72     1     0     0
SMALL
bcc


@<TRIPOS>ATOM
      1 C1           0.0000     0.0000     0.0000 c3         1 BNE      -0.031700
      2 C2          -0.4950     0.6950    -1.2420 ca         1 BNE      -0.037300
      3 C3           1.5010     0.0000     0.0000 c          1 BNE       0.735500
      4 C4          -0.5380     0.7280     1.2340 c3         1 BNE      -0.543400
      5 C5          -0.5050    -1.4440     0.0060 c3         1 BNE      -0.089400
      6 C6          -0.2800     0.1270    -2.4820 ca         1 BNE      -0.096000
      7 C7          -1.1610     1.9030    -1.1390 ca         1 BNE      -0.134000
      8 N8           2.2590     0.0000     1.0920 n          1 BNE      -0.463800
      9 O9           2.0640    -0.0020    -1.0750 o          1 BNE      -0.710500
     10 C10         -0.7090    -0.2860     2.3700 c3         1 BNE      -0.287400
     11 C11         -2.0240    -1.4540    -0.1840 c3         1 BNE      -0.095100
     12 C12         -0.7420     0.7650    -3.6260 ca         1 BNE       0.047100
     13 C13         -1.6170     2.5430    -2.2770 ca         1 BNE      -0.145000
     14 C14          1.7380     0.1210     2.4490 c3         1 BNE       0.118000
     15 C15          3.7080    -0.1300     0.9220 c3         1 BNE       0.092300
     16 C16          0.6420    -0.9230     2.6900 c3         1 BNE      -0.052400
     17 O17         -0.5350     0.2060    -4.8470 os         1 BNE      -0.178200
     18 C18         -1.4090     1.9760    -3.5200 ca         1 BNE      -0.164000
     19 C19          0.5800     0.7840    -5.3600 ca         1 BNE       0.179100
     20 C20          1.0140     0.4530    -6.6510 ca         1 BNE      -0.003000
     21 C21          1.2980     1.7000    -4.6070 ca         1 BNE      -0.236000
     22 C22          2.1600     1.0610    -7.1710 ca         1 BNE      -0.048000
     23 C23          0.2800    -0.4920    -7.4380 cg         1 BNE       0.218800
     24 C24          2.4330     2.2880    -5.1310 ca         1 BNE      -0.106300
     25 C25          2.8620     1.9690    -6.4080 ca         1 BNE      -0.132000
     26 N26         -0.3160    -1.2440    -8.0470 n1         1 BNE      -0.297800
     27 C27          3.2080     3.2840    -4.3070 c3         1 BNE       0.279800
     28 C28          3.7020     4.3950    -5.1960 cc         1 BNE      -0.350900
     29 C29          4.4020     2.5850    -3.6520 c3         1 BNE      -0.102100
     30 N30          2.3360     3.8420    -3.2650 nz         1 BNE      -0.818600
     31 N31          2.9480     5.1540    -6.0500 na         1 BNE      -0.190900
     32 C32          4.9730     4.8290    -5.3090 cd         1 BNE       0.389200
     33 C33          3.7830     6.0310    -6.6490 cc         1 BNE       0.460400
     34 C34          1.5030     5.0420    -6.2680 c3         1 BNE       0.012600
     35 NZ           4.9920     5.8280    -6.2030 nd         1 BNE      -0.675000
     36 H41         -1.2430     1.4850     0.9110 hc         1 BNE       0.188700
     37 H42         -1.0510     0.0120     1.8630 hc         1 BNE       0.188700
     38 H51         -0.1150    -1.9600     0.8750 hc         1 BNE       0.059200
     39 H52         -0.1690    -1.9470    -0.8930 hc         1 BNE       0.059200
     40 H61          0.2740    -0.8000    -2.5650 ha         1 BNE       0.174000
     41 H71         -1.3230     2.3510    -0.1660 ha         1 BNE       0.161000
     42 H101        -1.6910    -0.1530     2.8070 hc         1 BNE       0.151700
     43 H102         0.0430    -0.0910     3.1250 hc         1 BNE       0.151700
     44 H111        -2.5010    -1.7620     0.7380 hc         1 BNE       0.040367
     45 H112        -2.2840    -2.1470    -0.9740 hc         1 BNE       0.040367
     46 H113        -2.3610    -0.4600    -0.4500 hc         1 BNE       0.040367
     47 H131        -2.1380     3.4890    -2.1940 ha         1 BNE       0.141000
     48 H141         2.5660     0.2960     3.1260 h1         1 BNE       0.092200
     49 H142         1.0620     0.9660     2.4890 h1         1 BNE       0.092200
     50 H151         4.0860     0.7240     0.3730 h1         1 BNE       0.043367
     51 H152         4.1840    -0.1730     1.8940 h1         1 BNE       0.043367
     52 H153         3.9280    -1.0380     0.3730 h1         1 BNE       0.043367
     53 H161         0.4820    -1.9620     2.9540 hc         1 BNE       0.078200
     54 H162         1.0780    -0.4070     3.5370 hc         1 BNE       0.078200
     55 H181        -1.8180     2.4480    -4.4050 ha         1 BNE       0.146000
     56 H211         1.0130     1.8990    -3.5810 ha         1 BNE       0.146000
     57 H221         2.5010     0.8090    -8.1680 ha         1 BNE       0.171000
     58 H251         3.7440     2.4490    -6.8140 ha         1 BNE       0.160000
     59 H291         4.0470     1.7910    -3.0070 hc         1 BNE       0.081033
     60 H292         4.9640     3.3020    -3.0670 hc         1 BNE       0.081033
     61 H293         5.0410     2.1660    -4.4210 hc         1 BNE       0.081033
     62 H301         1.4880     4.1730    -3.6810 hn         1 BNE       0.458467
     63 H302         2.1230     3.1320    -2.5920 hn         1 BNE       0.458467
     64 H321         5.8600     4.2840    -5.0090 h4         1 BNE       0.061100
     65 H331         3.5020     6.7760    -7.3830 h5         1 BNE       0.091100
     66 H341         0.9770     5.4580    -5.4180 h1         1 BNE       0.065367
     67 H342         1.2350     3.9980    -6.3830 h1         1 BNE       0.065367
     68 H343         1.2300     5.5860    -7.1640 h1         1 BNE       0.065367
     69 H303         2.6590     4.7560    -3.0140 hn         1 BNE       0.458467
@<TRIPOS>BOND
     1     1     2 1
     2     1     3 1
     3     1     4 1
     4     1     5 1
     5     2     6 ar
     6     2     7 ar
     7     3     8 1
     8     3     9 2
     9     4    10 1
    10     4    36 1
    11     4    37 1
    12     5    11 1
    13     5    38 1
    14     5    39 1
    15     6    12 ar
    16     6    40 1
    17     7    13 ar
    18     7    41 1
    19     8    14 1
    20     8    15 1
    21    10    16 1
    22    10    42 1
    23    10    43 1
    24    11    44 1
    25    11    45 1
    26    11    46 1
    27    12    17 1
    28    12    18 ar
    29    13    18 ar
    30    13    47 1
    31    14    16 1
    32    14    48 1
    33    14    49 1
    34    15    50 1
    35    15    51 1
    36    15    52 1
    37    16    53 1
    38    16    54 1
    39    17    19 1
    40    18    55 1
    41    19    20 ar
    42    19    21 ar
    43    20    22 ar
    44    20    23 1
    45    21    24 ar
    46    21    56 1
    47    22    25 ar
    48    22    57 1
    49    23    26 3
    50    24    25 ar
    51    24    27 1
    52    25    58 1
    53    27    28 1
    54    27    29 1
    55    27    30 1
    56    28    31 1
    57    28    32 2
    58    29    59 1
    59    29    60 1
    60    29    61 1
    61    30    62 1
    62    30    63 1
    63    31    33 1
    64    31    34 1
    65    32    35 1
    66    32    64 1
    67    33    35 2
    68    33    65 1
    69    34    66 1
    70    34    67 1
    71    34    68 1
    72    69    30 1
@<TRIPOS>SUBSTRUCTURE
     1 BNE         1 TEMP              0 ****  ****    0 ROOT
