@<TRIPOS>MOLECULE
BNE
   69    74     1     0     0
SMALL
bcc


@<TRIPOS>ATOM
      1 C1           0.0000     0.0000     0.0000 c3         1 BNE       0.032000
      2 C2          -0.4950     0.6950    -1.2420 ca         1 BNE      -0.025000
      3 C3           1.5010     0.0000     0.0000 c2         1 BNE       0.266000
      4 C4          -0.5380     0.7280     1.2340 c3         1 BNE      -0.596000
      5 C5          -0.5050    -1.4440     0.0060 c3         1 BNE      -0.137000
      6 C6          -0.2800     0.1270    -2.4820 ca         1 BNE      -0.081000
      7 C7          -1.1610     1.9030    -1.1390 ca         1 BNE      -0.129000
      8 N8           2.2590     0.0000     1.0920 n          1 BNE       0.024000
      9 O9           2.0640    -0.0020    -1.0750 o          1 BNE      -0.483000
     10 C10         -0.7090    -0.2860     2.3700 DU         1 BNE      -0.225000
     11 C11         -2.0240    -1.4540    -0.1840 c3         1 BNE      -0.130000
     12 C12         -0.7420     0.7650    -3.6260 ca         1 BNE       0.017000
     13 C13         -1.6170     2.5430    -2.2770 ca         1 BNE      -0.107000
     14 C14          1.7380     0.1210     2.4490 c3         1 BNE      -0.063000
     15 C15          3.7080    -0.1300     0.9220 c3         1 BNE      -0.076000
     16 C16          0.6420    -0.9230     2.6900 DU         1 BNE      -0.047000
     17 O17         -0.5350     0.2060    -4.8470 os         1 BNE      -0.070000
     18 C18         -1.4090     1.9760    -3.5200 ca         1 BNE      -0.152000
     19 C19          0.5800     0.7840    -5.3600 ca         1 BNE       0.148000
     20 C20          1.0140     0.4530    -6.6510 ca         1 BNE       0.047000
     21 C21          1.2980     1.7000    -4.6070 ca         1 BNE      -0.244000
     22 C22          2.1600     1.0610    -7.1710 ca         1 BNE      -0.019000
     23 C23          0.2800    -0.4920    -7.4380 c1         1 BNE      -0.136000
     24 C24          2.4330     2.2880    -5.1310 ca         1 BNE      -0.114000
     25 C25          2.8620     1.9690    -6.4080 ca         1 BNE      -0.107000
     26 N26         -0.3160    -1.2440    -8.0470 n1         1 BNE       0.021000
     27 C27          3.2080     3.2840    -4.3070 c3         1 BNE      -0.040000
     28 C28          3.7020     4.3950    -5.1960 c2         1 BNE      -0.442000
     29 C29          4.4020     2.5850    -3.6520 c3         1 BNE      -0.128000
     30 N30          2.3360     3.8420    -3.2650 nz         1 BNE       0.788000
     31 N31          2.9480     5.1540    -6.0500 na         1 BNE       0.333000
     32 C32          4.9730     4.8290    -5.3090 c2         1 BNE      -0.068000
     33 C33          3.7830     6.0310    -6.6490 c2         1 BNE      -0.199000
     34 C34          1.5030     5.0420    -6.2680 c3         1 BNE      -0.135000
     35 NZ           4.9920     5.8280    -6.2030 n2         1 BNE      -0.066000
     36 H41         -1.2430     1.4850     0.9110 hc         1 BNE       0.160000
     37 H42         -1.0510     0.0120     1.8630 DU         1 BNE       0.209000
     38 H51         -0.1150    -1.9600     0.8750 hc         1 BNE       0.080000
     39 H52         -0.1690    -1.9470    -0.8930 hc         1 BNE       0.080000
     40 H61          0.2740    -0.8000    -2.5650 ha         1 BNE       0.151000
     41 H71         -1.3230     2.3510    -0.1660 ha         1 BNE       0.141000
     42 H101        -1.6910    -0.1530     2.8070 ha         1 BNE       0.145000
     43 H102         0.0430    -0.0910     3.1250 DU         1 BNE       0.144000
     44 H111        -2.5010    -1.7620     0.7380 hc         1 BNE       0.050000
     45 H112        -2.2840    -2.1470    -0.9740 hc         1 BNE       0.050000
     46 H113        -2.3610    -0.4600    -0.4500 hc         1 BNE       0.050000
     47 H131        -2.1380     3.4890    -2.1940 ha         1 BNE       0.112000
     48 H141         2.5660     0.2960     3.1260 h1         1 BNE       0.105500
     49 H142         1.0620     0.9660     2.4890 h1         1 BNE       0.105500
     50 H151         4.0860     0.7240     0.3730 h1         1 BNE       0.051667
     51 H152         4.1840    -0.1730     1.8940 h1         1 BNE       0.051667
     52 H153         3.9280    -1.0380     0.3730 h1         1 BNE       0.051667
     53 H161         0.4820    -1.9620     2.9540 ha         1 BNE       0.078000
     54 H162         1.0780    -0.4070     3.5370 ha         1 BNE       0.078000
     55 H181        -1.8180     2.4480    -4.4050 ha         1 BNE       0.122000
     56 H211         1.0130     1.8990    -3.5810 ha         1 BNE       0.139000
     57 H221         2.5010     0.8090    -8.1680 ha         1 BNE       0.134000
     58 H251         3.7440     2.4490    -6.8140 ha         1 BNE       0.134000
     59 H291         4.0470     1.7910    -3.0070 hc         1 BNE       0.084667
     60 H292         4.9640     3.3020    -3.0670 hc         1 BNE       0.084667
     61 H293         5.0410     2.1660    -4.4210 hc         1 BNE       0.084667
     62 H301         1.4880     4.1730    -3.6810 hn         1 BNE       0.034667
     63 H302         2.1230     3.1320    -2.5920 hn         1 BNE       0.034667
     64 H321         5.8600     4.2840    -5.0090 h4         1 BNE       0.158000
     65 H331         3.5020     6.7760    -7.3830 h5         1 BNE       0.180000
     66 H341         0.9770     5.4580    -5.4180 h1         1 BNE       0.075667
     67 H342         1.2350     3.9980    -6.3830 h1         1 BNE       0.075667
     68 H343         1.2300     5.5860    -7.1640 h1         1 BNE       0.075667
     69 H303         2.6590     4.7560    -3.0140 hn         1 BNE       0.034667
@<TRIPOS>BOND
     1     1     2 1   
     2     1     3 1   
     3     1     4 1   
     4     1     5 1   
     5     2     6 1   
     6     2     7 1   
     7     3     8 1   
     8     3     9 1   
     9     4    10 1   
    10     4    36 1   
    11     4    37 1   
    12     5    11 1   
    13     5    38 1   
    14     5    39 1   
    15     6    12 1   
    16     6    40 1   
    17     7    13 1   
    18     7    41 1   
    19     8    14 1   
    20     8    15 1   
    21    10    16 1   
    22    10    37 1   
    23    10    42 1   
    24    10    43 1   
    25    11    44 1   
    26    11    45 1   
    27    11    46 1   
    28    12    17 1   
    29    12    18 1   
    30    13    18 1   
    31    13    47 1   
    32    14    16 1   
    33    14    48 1   
    34    14    49 1   
    35    15    50 1   
    36    15    51 1   
    37    15    52 1   
    38    16    43 1   
    39    16    53 1   
    40    16    54 1   
    41    17    19 1   
    42    18    55 1   
    43    19    20 1   
    44    19    21 1   
    45    20    22 1   
    46    20    23 1   
    47    21    24 1   
    48    21    56 1   
    49    22    25 1   
    50    22    57 1   
    51    23    26 1   
    52    24    25 1   
    53    24    27 1   
    54    25    58 1   
    55    27    28 1   
    56    27    29 1   
    57    27    30 1   
    58    28    31 1   
    59    28    32 1   
    60    29    59 1   
    61    29    60 1   
    62    29    61 1   
    63    30    62 1   
    64    30    63 1   
    65    30    69 1   
    66    31    33 1   
    67    31    34 1   
    68    32    35 1   
    69    32    64 1   
    70    33    35 1   
    71    33    65 1   
    72    34    66 1   
    73    34    67 1   
    74    34    68 1   
@<TRIPOS>SUBSTRUCTURE
     1 BNE         1 TEMP              0 ****  ****    0 ROOT
