@<TRIPOS>MOLECULE
BNF
   19    19     1     0     0
SMALL
bcc


@<TRIPOS>ATOM
      1 C1           0.0000     0.0000     0.0000 ca         1 BNF      -0.102000
      2 C2           1.3810     0.0000     0.0000 ca         1 BNF      -0.093000
      3 C3           2.0710     0.0000     1.1980 ca         1 BNF      -0.102000
      4 C4           1.3790     0.0020     2.3940 ca         1 BNF      -0.085000
      5 C5          -0.0020     0.0020     2.3930 ca         1 BNF      -0.126300
      6 C6          -0.6920    -0.0030     1.1960 ca         1 BNF      -0.085000
      7 C12         -0.7570     0.0020     3.6970 c3         1 BNF       0.110300
      8 N13         -1.0020     1.3820     4.1200 ns         1 BNF      -0.223900
      9 C14         -1.6650     1.6290     5.2660 c          1 BNF       0.612900
     10 O16         -2.0580     0.7080     5.9490 o          1 BNF      -0.653100
     11 H1          -0.5410    -0.0020    -0.9390 ha         1 BNF       0.105000
     12 H2           1.9240     0.0010    -0.9380 ha         1 BNF       0.104000
     13 H3           3.1550     0.0000     1.1990 ha         1 BNF       0.105000
     14 H4           1.9200     0.0040     3.3330 ha         1 BNF       0.108000
     15 H6          -1.7760    -0.0030     1.1950 ha         1 BNF       0.108000
     16 H121        -0.1720    -0.5090     4.4530 h1         1 BNF       0.029700
     17 H122        -1.7030    -0.5090     3.5670 h1         1 BNF       0.029700
     18 H13         -0.6760     2.1430     3.5570 hn         1 BNF       0.178500
     19 H14         -1.8220     2.6500     5.5920 h5         1 BNF      -0.020800
@<TRIPOS>BOND
     1     1     2 ar  
     2     1     6 ar  
     3     1    11 1   
     4     2     3 ar  
     5     2    12 1   
     6     3     4 ar  
     7     3    13 1   
     8     4     5 ar  
     9     4    14 1   
    10     5     6 ar  
    11     5     7 1   
    12     6    15 1   
    13     7     8 1   
    14     7    16 1   
    15     7    17 1   
    16     8     9 1   
    17     8    18 1   
    18     9    10 2   
    19     9    19 1   
@<TRIPOS>SUBSTRUCTURE
     1 BNF         1 TEMP              0 ****  ****    0 ROOT
