@<TRIPOS>MOLECULE
BNI
   45    47     1     0     0
SMALL
bcc


@<TRIPOS>ATOM
      1 C1           0.0000     0.0000     0.0000 c          1 BNI       0.562100
      2 C10          1.5070     0.0000     0.0000 c3         1 BNI      -0.096400
      3 C9           2.0170     0.0000     1.4420 c3         1 BNI      -0.014400
      4 C8           3.5470     0.0010     1.4420 c3         1 BNI      -0.035400
      5 C7           4.0570     0.0010     2.8850 c3         1 BNI      -0.015400
      6 C2           5.5870     0.0010     2.8850 c3         1 BNI       0.073400
      7 C6           7.8120    -1.6070     3.2690 c3         1 BNI       0.099700
      8 C4           6.1410     0.0440     4.3240 c3         1 BNI       0.007700
      9 C5           7.3710    -0.8450     4.5370 c3         1 BNI      -0.004300
     10 C3           5.6690    -1.5560     5.8950 c          1 BNI       0.622500
     11 O2          -0.6070    -0.0000     1.0510 o          1 BNI      -0.619100
     12 O3           5.0560    -2.2060     6.7210 o          1 BNI      -0.722500
     13 N1           6.9380    -1.8160     5.5550 ns         1 BNI      -0.213900
     14 N2           5.1360    -0.5140     5.2440 ns         1 BNI      -0.218900
     15 S1           6.2500    -1.6140     2.2860 ss         1 BNI      -0.424200
     16 N17         -0.6740    -0.0000    -1.1670 ns         1 BNI      -0.045100
     17 C18         -2.0690     0.1160    -1.1700 ca         1 BNI      -0.026400
     18 C20         -2.7050     0.8780    -0.1990 ca         1 BNI      -0.143500
     19 C21         -4.0820     0.9900    -0.2040 ca         1 BNI       0.012500
     20 C22         -4.8260     0.3430    -1.1740 ca         1 BNI      -0.472200
     21 C23         -4.1950    -0.4220    -2.1390 ca         1 BNI       0.012500
     22 C24         -2.8190    -0.5330    -2.1420 ca         1 BNI      -0.143500
     23 N25         -6.3010     0.4640    -1.1770 no         1 BNI       1.052200
     24 O26         -6.9570    -0.1000    -2.0340 o          1 BNI      -0.453000
     25 O27         -6.8580     1.1330    -0.3250 o          1 BNI      -0.453000
     26 H101         1.8680     0.8840    -0.5110 hc         1 BNI       0.031700
     27 H102         1.8680    -0.8840    -0.5110 hc         1 BNI       0.031700
     28 H91          1.6560     0.8840     1.9530 hc         1 BNI       0.032700
     29 H92          1.6570    -0.8850     1.9530 hc         1 BNI       0.032700
     30 H81          3.9080    -0.8840     0.9310 hc         1 BNI       0.023700
     31 H82          3.9070     0.8850     0.9320 hc         1 BNI       0.023700
     32 H71          3.6960     0.8850     3.3960 hc         1 BNI       0.034700
     33 H72          3.6960    -0.8840     3.3950 hc         1 BNI       0.034700
     34 H21A         5.9820     0.8210     2.2970 h1         1 BNI       0.059700
     35 H61          8.5210    -0.9780     2.7440 h1         1 BNI       0.066200
     36 H62          8.0140    -2.6310     3.5610 h1         1 BNI       0.066200
     37 HC4          6.3710     1.0650     4.6030 h1         1 BNI       0.038700
     38 HC5          8.1950    -0.2530     4.9180 h1         1 BNI       0.038700
     39 HN11         7.5020    -2.5520     5.9320 hn         1 BNI       0.216500
     40 HN21         4.2040    -0.1680     5.3640 hn         1 BNI       0.223500
     41 H171        -0.1750    -0.0600    -2.0330 hn         1 BNI       0.174500
     42 H20         -2.1230     1.3850     0.5600 ha         1 BNI       0.133000
     43 H21         -4.5790     1.5860     0.5510 ha         1 BNI       0.133000
     44 H23         -4.7810    -0.9270    -2.8970 ha         1 BNI       0.133000
     45 H24         -2.3250    -1.1320    -2.8980 ha         1 BNI       0.133000
@<TRIPOS>BOND
     1     1     2 1   
     2     1    11 2   
     3     1    16 1   
     4     2     3 1   
     5     2    26 1   
     6     2    27 1   
     7     3     4 1   
     8     3    28 1   
     9     3    29 1   
    10     4     5 1   
    11     4    30 1   
    12     4    31 1   
    13     5     6 1   
    14     5    32 1   
    15     5    33 1   
    16     6     8 1   
    17     6    15 1   
    18     6    34 1   
    19     7     9 1   
    20     7    15 1   
    21     7    35 1   
    22     7    36 1   
    23     8     9 1   
    24     8    14 1   
    25     8    37 1   
    26     9    13 1   
    27     9    38 1   
    28    10    12 2   
    29    10    13 1   
    30    10    14 1   
    31    13    39 1   
    32    14    40 1   
    33    16    17 1   
    34    16    41 1   
    35    17    18 ar  
    36    17    22 ar  
    37    18    19 ar  
    38    18    42 1   
    39    19    20 ar  
    40    19    43 1   
    41    20    21 ar  
    42    20    23 1   
    43    21    22 ar  
    44    21    44 1   
    45    22    45 1   
    46    23    24 1   
    47    23    25 1   
@<TRIPOS>SUBSTRUCTURE
     1 BNI         1 TEMP              0 ****  ****    0 ROOT
