@<TRIPOS>MOLECULE
BNJ
   37    39     1     0     0
SMALL
bcc


@<TRIPOS>ATOM
      1 CAK          0.0000     0.0000     0.0000 c3         1 BNJ      -0.044900
      2 CAI          1.5390     0.0000     0.0000 c3         1 BNJ      -0.020900
      3 CAJ          1.9790     0.0000     1.4780 c3         1 BNJ      -0.020900
      4 CAL          0.7700    -0.6030     2.2360 c3         1 BNJ      -0.044900
      5 CAT         -0.4420    -0.0020     1.4790 c3         1 BNJ       0.193500
      6 NAM         -1.6280    -0.8420     1.6600 n7         1 BNJ      -0.570100
      7 SAU         -3.1270    -0.1470     1.7660 sy         1 BNJ       1.040200
      8 OAB         -4.0550    -1.2150     1.9020 o          1 BNJ      -0.584300
      9 OAC         -3.0140     0.9090     2.7090 o          1 BNJ      -0.584300
     10 CAQ         -3.4620     0.6090     0.2090 ca         1 BNJ      -0.154500
     11 CAH         -4.0910    -0.1130    -0.7840 ca         1 BNJ       0.030000
     12 CAF         -3.0980     1.9260    -0.0110 ca         1 BNJ       0.012000
     13 CAD         -3.3580     2.5260    -1.2300 ca         1 BNJ      -0.122000
     14 CAE         -3.9820     1.8140    -2.2350 ca         1 BNJ      -0.050000
     15 CAP         -4.3550     0.4880    -2.0170 ca         1 BNJ      -0.081800
     16 CAR         -5.0300    -0.2790    -3.0860 cc         1 BNJ      -0.096600
     17 CAG         -5.3980    -1.5530    -2.9010 cd         1 BNJ      -0.044400
     18 SAO         -6.1540    -2.0500    -4.4270 ss         1 BNJ      -0.279200
     19 CAS         -5.9150    -0.4820    -5.2170 c          1 BNJ       0.644100
     20 OAA         -6.2400    -0.1670    -6.3490 o          1 BNJ      -0.600500
     21 NAN         -5.3040     0.2880    -4.3010 ns         1 BNJ      -0.001100
     22 H1          -0.3700     0.8900    -0.4950 hc         1 BNJ       0.020950
     23 H2          -0.3700    -0.8890    -0.4970 hc         1 BNJ       0.020950
     24 H3           1.9080    -0.8890    -0.4960 hc         1 BNJ       0.015700
     25 H4           1.9080     0.8890    -0.4960 hc         1 BNJ       0.015700
     26 H5           2.8560    -0.6220     1.6110 hc         1 BNJ       0.015700
     27 H6           2.1690     1.0120     1.8150 hc         1 BNJ       0.015700
     28 H7           0.7700    -0.2850     3.2710 hc         1 BNJ       0.020950
     29 H8           0.7710    -1.6840     2.1580 hc         1 BNJ       0.020950
     30 H9          -0.6320     1.0100     1.8160 h1         1 BNJ       0.049700
     31 H10         -1.5280    -1.8330     1.7590 hn         1 BNJ       0.352800
     32 H11         -4.3790    -1.1420    -0.6090 ha         1 BNJ       0.136000
     33 H12         -2.6090     2.4890     0.7750 ha         1 BNJ       0.127000
     34 H13         -3.0690     3.5560    -1.3970 ha         1 BNJ       0.114000
     35 H14         -4.1840     2.2860    -3.1890 ha         1 BNJ       0.103000
     36 H15         -4.7420    -2.2360    -2.3740 h4         1 BNJ       0.169000
     37 H16         -5.0550     1.2370    -4.5000 hn         1 BNJ       0.182500
@<TRIPOS>BOND
     1     1     2 1   
     2     1     5 1   
     3     1    22 1   
     4     1    23 1   
     5     2     3 1   
     6     2    24 1   
     7     2    25 1   
     8     3     4 1   
     9     3    26 1   
    10     3    27 1   
    11     4     5 1   
    12     4    28 1   
    13     4    29 1   
    14     5     6 1   
    15     5    30 1   
    16     6     7 1   
    17     6    31 1   
    18     7     8 2   
    19     7     9 2   
    20     7    10 1   
    21    10    11 ar  
    22    10    12 ar  
    23    11    15 ar  
    24    11    32 1   
    25    12    13 ar  
    26    12    33 1   
    27    13    14 ar  
    28    13    34 1   
    29    14    15 ar  
    30    14    35 1   
    31    15    16 1   
    32    16    17 2   
    33    16    21 1   
    34    17    18 1   
    35    17    36 1   
    36    18    19 1   
    37    19    20 2   
    38    19    21 1   
    39    21    37 1   
@<TRIPOS>SUBSTRUCTURE
     1 BNJ         1 TEMP              0 ****  ****    0 ROOT
