@<TRIPOS>MOLECULE
molecule
   37    39     1     0     0
SMALL
bcc


@<TRIPOS>ATOM
      1 CAK          0.0000     0.0000     0.0000 c3         1 BNJ      -0.095900
      2 CAI          1.5390     0.0000     0.0000 c3         1 BNJ      -0.083900
      3 CAJ          1.9790     0.0000     1.4780 c3         1 BNJ      -0.083900
      4 CAL          0.7700    -0.6030     2.2360 c3         1 BNJ      -0.095900
      5 CAT         -0.4420    -0.0020     1.4790 c3         1 BNJ       0.234500
      6 NAM         -1.6280    -0.8420     1.6600 n7         1 BNJ      -0.907100
      7 SAU         -3.1270    -0.1470     1.7660 sy         1 BNJ       1.421200
      8 OAB         -4.0550    -1.2150     1.9020 o          1 BNJ      -0.631800
      9 OAC         -3.0140     0.9090     2.7090 o          1 BNJ      -0.631800
     10 CAQ         -3.4620     0.6090     0.2090 ca         1 BNJ      -0.306500
     11 CAH         -4.0910    -0.1130    -0.7840 ca         1 BNJ      -0.001000
     12 CAF         -3.0980     1.9260    -0.0110 ca         1 BNJ      -0.022000
     13 CAD         -3.3580     2.5260    -1.2300 ca         1 BNJ      -0.144000
     14 CAE         -3.9820     1.8140    -2.2350 ca         1 BNJ      -0.070000
     15 CAP         -4.3550     0.4880    -2.0170 ca         1 BNJ      -0.073800
     16 CAR         -5.0300    -0.2790    -3.0860 cc         1 BNJ       0.050400
     17 CAG         -5.3980    -1.5530    -2.9010 cd         1 BNJ      -0.106400
     18 SAO         -6.1540    -2.0500    -4.4270 ss         1 BNJ      -0.187200
     19 CAS         -5.9150    -0.4820    -5.2170 c          1 BNJ       0.708100
     20 OAA         -6.2400    -0.1670    -6.3490 o          1 BNJ      -0.572500
     21 NAN         -5.3040     0.2880    -4.3010 ns         1 BNJ      -0.454100
     22 H1          -0.3700     0.8900    -0.4950 hc         1 BNJ       0.051450
     23 H2          -0.3700    -0.8890    -0.4970 hc         1 BNJ       0.051450
     24 H3           1.9080    -0.8890    -0.4960 hc         1 BNJ       0.047700
     25 H4           1.9080     0.8890    -0.4960 hc         1 BNJ       0.047700
     26 H5           2.8560    -0.6220     1.6110 hc         1 BNJ       0.047700
     27 H6           2.1690     1.0120     1.8150 hc         1 BNJ       0.047700
     28 H7           0.7700    -0.2850     3.2710 hc         1 BNJ       0.051450
     29 H8           0.7710    -1.6840     2.1580 hc         1 BNJ       0.051450
     30 H9          -0.6320     1.0100     1.8160 h1         1 BNJ       0.075700
     31 H10         -1.5280    -1.8330     1.7590 hn         1 BNJ       0.457800
     32 H11         -4.3790    -1.1420    -0.6090 ha         1 BNJ       0.162000
     33 H12         -2.6090     2.4890     0.7750 ha         1 BNJ       0.155000
     34 H13         -3.0690     3.5560    -1.3970 ha         1 BNJ       0.143000
     35 H14         -4.1840     2.2860    -3.1890 ha         1 BNJ       0.130000
     36 H15         -4.7420    -2.2360    -2.3740 h4         1 BNJ       0.191000
     37 H16         -5.0550     1.2370    -4.5000 hn         1 BNJ       0.339500
@<TRIPOS>BOND
     1     4     3 1
     2     4     5 1
     3     9     7 2
     4     6     5 1
     5     6     7 1
     6     3     2 1
     7     8     7 2
     8     5     1 1
     9     7    10 1
    10     2     1 1
    11    10    11 ar
    12    10    12 ar
    13    11    15 ar
    14    12    13 ar
    15    15    16 1
    16    15    14 ar
    17    21    16 1
    18    21    19 1
    19    20    19 2
    20    13    14 ar
    21    16    17 2
    22    19    18 1
    23    17    18 1
    24     1    22 1
    25     1    23 1
    26     2    24 1
    27     2    25 1
    28     3    26 1
    29     3    27 1
    30     4    28 1
    31     4    29 1
    32     5    30 1
    33     6    31 1
    34    11    32 1
    35    12    33 1
    36    13    34 1
    37    14    35 1
    38    17    36 1
    39    21    37 1
@<TRIPOS>SUBSTRUCTURE
     1 BNJ         1 TEMP              0 ****  ****    0 ROOT
