@<TRIPOS>MOLECULE
molecule
   37    39     1     0     0
SMALL
bcc


@<TRIPOS>ATOM
      1 CAK          0.0000     0.0000     0.0000 c3         1 BNK      -0.096900
      2 CAI          1.5430     0.0000     0.0000 c3         1 BNK      -0.084900
      3 CAJ          1.9230     0.0000     1.5010 c3         1 BNK      -0.084900
      4 CAL          0.8520    -0.9290     2.1260 c3         1 BNK      -0.096900
      5 CAU         -0.4390    -0.5910     1.3520 c3         1 BNK       0.241500
      6 NAM         -1.2280     0.3940     2.0960 n7         1 BNK      -0.903100
      7 SAV         -2.8250     0.1010     2.4210 sy         1 BNK       1.420200
      8 OAB         -3.2830     1.1960     3.2030 o          1 BNK      -0.626300
      9 OAC         -3.4220    -0.2780     1.1890 o          1 BNK      -0.626300
     10 CAS         -2.8930    -1.3180     3.4640 ca         1 BNK      -0.303500
     11 CAH         -3.5010    -2.4730     3.0150 ca         1 BNK       0.001000
     12 CAP         -2.3350    -1.2730     4.7290 ca         1 BNK       0.122400
     13 Cl          -1.5670     0.1820     5.2840 cl         1 BNK      -0.070400
     14 CAE         -2.3850    -2.3840     5.5540 ca         1 BNK      -0.136000
     15 CAF         -2.9930    -3.5420     5.1190 ca         1 BNK      -0.065000
     16 CAQ         -3.5540    -3.5960     3.8420 ca         1 BNK      -0.071800
     17 CAR         -4.2030    -4.8380     3.3670 cc         1 BNK       0.047400
     18 CAG         -4.7490    -4.9130     2.1470 cd         1 BNK      -0.107400
     19 SAO         -5.3940    -6.5590     2.0220 ss         1 BNK      -0.181200
     20 CAT         -4.8760    -7.0360     3.6490 c          1 BNK       0.708100
     21 OAA         -5.0360    -8.1170     4.1890 o          1 BNK      -0.569500
     22 NAN         -4.2640    -5.9530     4.1570 ns         1 BNK      -0.454100
     23 H1          -0.3700     1.0140    -0.0980 hc         1 BNK       0.055200
     24 H2          -0.3700    -0.6160    -0.8100 hc         1 BNK       0.055200
     25 H3           1.9200     0.8920    -0.4850 hc         1 BNK       0.047450
     26 H4           1.9200    -0.8920    -0.4850 hc         1 BNK       0.047450
     27 H5           1.8490     0.9990     1.9140 hc         1 BNK       0.047450
     28 H6           2.9150    -0.4100     1.6440 hc         1 BNK       0.047450
     29 H7           1.1200    -1.9680     1.9770 hc         1 BNK       0.055200
     30 H8           0.7300    -0.7090     3.1790 hc         1 BNK       0.055200
     31 H9          -1.0180    -1.4920     1.1890 h1         1 BNK       0.063700
     32 H10         -0.8110     1.2590     2.3790 hn         1 BNK       0.460800
     33 H11         -3.9340    -2.5090     2.0230 ha         1 BNK       0.174000
     34 H12         -1.9480    -2.3420     6.5440 ha         1 BNK       0.155000
     35 H13         -3.0320    -4.4100     5.7660 ha         1 BNK       0.136000
     36 H14         -5.3160    -4.0770     1.7540 h4         1 BNK       0.197000
     37 H15         -3.8740    -5.9600     5.0790 hn         1 BNK       0.338500
@<TRIPOS>BOND
     1     8     7 2
     2     1     5 1
     3     1     2 1
     4     9     7 2
     5     6     7 1
     6     6     5 1
     7     7    10 1
     8     5     4 1
     9     2     3 1
    10     4     3 1
    11    13    12 1
    12    10    12 ar
    13    10    11 ar
    14    12    14 ar
    15    11    16 ar
    16    14    15 ar
    17    16    15 ar
    18    16    17 1
    19    22    17 1
    20    22    20 1
    21    17    18 2
    22    21    20 2
    23    20    19 1
    24    18    19 1
    25     1    23 1
    26     1    24 1
    27     2    25 1
    28     2    26 1
    29     3    27 1
    30     3    28 1
    31     4    29 1
    32     4    30 1
    33     5    31 1
    34     6    32 1
    35    11    33 1
    36    14    34 1
    37    15    35 1
    38    18    36 1
    39    22    37 1
@<TRIPOS>SUBSTRUCTURE
     1 BNK         1 TEMP              0 ****  ****    0 ROOT
