@<TRIPOS>MOLECULE
molecule
   22    23     1     0     0
SMALL
bcc


@<TRIPOS>ATOM
      1 C1           0.0000     0.0000     0.0000 ca         1 BNL      -0.119750
      2 C2           1.3930     0.0000     0.0000 cp         1 BNL      -0.034000
      3 C3           2.0850     0.0000     1.2090 ca         1 BNL      -0.119750
      4 C4           1.3870     0.0000     2.4000 ca         1 BNL      -0.126750
      5 C5           0.0040     0.0000     2.3940 ca         1 BNL      -0.127000
      6 C6          -0.6870     0.0000     1.1970 ca         1 BNL      -0.126750
      7 C12          2.1440     0.0000    -3.6840 ca         1 BNL      -0.126750
      8 C13          3.5270     0.0000    -3.6780 ca         1 BNL      -0.127000
      9 C14          4.2180     0.0000    -2.4800 ca         1 BNL      -0.126750
     10 C15          3.5310     0.0000    -1.2840 ca         1 BNL      -0.119750
     11 C16          2.1380     0.0000    -1.2840 cp         1 BNL      -0.034000
     12 C17          1.4460     0.0000    -2.4930 ca         1 BNL      -0.119750
     13 H1          -0.5430     0.0000    -0.9380 ha         1 BNL       0.133000
     14 H3           3.1680    -0.0000     1.2150 ha         1 BNL       0.133000
     15 H4           1.9240    -0.0000     3.3410 ha         1 BNL       0.130000
     16 H5          -0.5390     0.0000     3.3310 ha         1 BNL       0.129000
     17 H6          -1.7710     0.0000     1.1980 ha         1 BNL       0.130000
     18 H13          4.0700     0.0000    -4.6150 ha         1 BNL       0.129000
     19 H14          5.3010     0.0000    -2.4820 ha         1 BNL       0.130000
     20 H15          4.0740     0.0000    -0.3460 ha         1 BNL       0.133000
     21 H17          0.3630    -0.0000    -2.4990 ha         1 BNL       0.133000
     22 H12          1.6070     0.0000    -4.6250 ha         1 BNL       0.130000
@<TRIPOS>BOND
     1     1     2 ar
     2     1     6 ar
     3     2     3 ar
     4     2    11 1
     5     3     4 ar
     6     4     5 ar
     7     5     6 ar
     8     7     8 ar
     9     7    12 ar
    10     8     9 ar
    11     9    10 ar
    12    10    11 ar
    13    11    12 ar
    14     1    13 1
    15     3    14 1
    16     4    15 1
    17     5    16 1
    18     6    17 1
    19     7    22 1
    20     8    18 1
    21     9    19 1
    22    10    20 1
    23    12    21 1
@<TRIPOS>SUBSTRUCTURE
     1 BNL         1 TEMP              0 ****  ****    0 ROOT
