@<TRIPOS>MOLECULE
BNL
   22    23     1     0     0
SMALL
bcc


@<TRIPOS>ATOM
      1 C1         -0.0070   -0.0000    0.0180 ca        1 BNL     -0.121000
      2 C2          1.3980   -0.0000   -0.0080 cp        1 BNL     -0.027000
      3 C3          2.0730   -0.0000    1.2250 ca        1 BNL     -0.121000
      4 C4          1.3740   -0.0000    2.4290 ca        1 BNL     -0.131000
      5 C5         -0.0200    0.0000    2.4360 ca        1 BNL     -0.126000
      6 C6         -0.7060   -0.0000    1.2230 ca        1 BNL     -0.131000
      7 C12         2.1570    0.0000   -3.7130 ca        1 BNL     -0.131000
      8 C13         3.5510    0.0000   -3.7200 ca        1 BNL     -0.126000
      9 C14         4.2370    0.0000   -2.5070 ca        1 BNL     -0.131000
     10 C15         3.5380    0.0000   -1.3020 ca        1 BNL     -0.121000
     11 C16         2.1330    0.0000   -1.2760 cp        1 BNL     -0.027000
     12 C17         1.4580    0.0000   -2.5090 ca        1 BNL     -0.121000
     13 H1         -0.5890   -0.0000   -0.9150 ha        1 BNL      0.131000
     14 H3          3.1720   -0.0000    1.2660 ha        1 BNL      0.131000
     15 H4          1.9280   -0.0000    3.3800 ha        1 BNL      0.131000
     16 H5         -0.5710    0.0000    3.3870 ha        1 BNL      0.132000
     17 H6         -1.8060   -0.0000    1.2140 ha        1 BNL      0.131000
     18 H13         4.1020   -0.0000   -4.6710 ha        1 BNL      0.132000
     19 H14         5.3370    0.0000   -2.4980 ha        1 BNL      0.131000
     20 H15         4.1200    0.0000   -0.3690 ha        1 BNL      0.131000
     21 H17         0.3590    0.0000   -2.5500 ha        1 BNL      0.131000
     22 H12         1.6030    0.0000   -4.6640 ha        1 BNL      0.131000
@<TRIPOS>BOND
     1    1    2 ar  
     2    1    6 ar  
     3    1   13 1   
     4    2    3 ar  
     5    2   11 1   
     6    3    4 ar  
     7    3   14 1   
     8    4    5 ar  
     9    4   15 1   
    10    5    6 ar  
    11    5   16 1   
    12    6   17 1   
    13    7    8 ar  
    14    7   12 ar  
    15    7   22 1   
    16    8    9 ar  
    17    8   18 1   
    18    9   10 ar  
    19    9   19 1   
    20   10   11 ar  
    21   10   20 1   
    22   11   12 ar  
    23   12   21 1   
@<TRIPOS>SUBSTRUCTURE
     1 BNL         1 TEMP              0 ****  ****    0 ROOT
