@<TRIPOS>MOLECULE
BNM
   48    51     1     0     0
SMALL
bcc


@<TRIPOS>ATOM
      1 O01          0.0000     0.0000     0.0000 o          1 BNM      -0.640100
      2 C02          1.2130     0.0000     0.0000 c          1 BNM       0.609100
      3 N03          1.8870     0.0000     1.1670 ns         1 BNM      -0.032100
      4 C04          1.1900     0.0990     2.3770 ca         1 BNM      -0.108400
      5 C05         -0.0500    -0.5070     2.5140 ca         1 BNM      -0.051000
      6 C06         -0.7400    -0.4070     3.7210 ca         1 BNM      -0.062800
      7 C07         -2.0630    -1.0500     3.8750 cc         1 BNM      -0.095600
      8 C08         -2.7470    -0.9640     5.0230 cd         1 BNM      -0.046400
      9 S09         -4.2500    -1.8640     4.7420 ss         1 BNM      -0.286200
     10 C10         -3.8410    -2.2980     3.0720 c          1 BNM       0.645100
     11 O11         -4.5120    -2.9530     2.2930 o          1 BNM      -0.600500
     12 N12         -2.6360    -1.7510     2.8490 ns         1 BNM       0.003900
     13 C13         -0.1770     0.3010     4.7850 ca         1 BNM       0.013000
     14 C14          1.0570     0.8990     4.6390 ca         1 BNM      -0.137500
     15 S15          1.7650     1.7930     5.9830 sy         1 BNM       1.040200
     16 O16          2.6860     2.7130     5.4130 o          1 BNM      -0.583300
     17 O17          0.6830     2.1910     6.8130 o          1 BNM      -0.583300
     18 N18          2.6630     0.7190     6.8660 n7         1 BNM      -0.577100
     19 C19          3.8470     0.0920     6.2740 c3         1 BNM       0.205500
     20 C20          5.1200     0.8460     6.7120 c3         1 BNM      -0.043400
     21 C21          5.6370     0.0410     7.9300 c3         1 BNM      -0.023900
     22 C22          5.3480    -1.4250     7.5190 c3         1 BNM      -0.023900
     23 C23          3.9920    -1.3510     6.7880 c3         1 BNM      -0.043400
     24 C24          1.7430     0.7960     3.4430 ca         1 BNM      -0.025000
     25 C25          1.9660    -0.0060    -1.3050 cx         1 BNM      -0.224700
     26 C26          1.1450    -0.0150    -2.5960 cx         1 BNM      -0.044900
     27 C27          1.8940    -1.2740    -2.1570 cx         1 BNM      -0.044900
     28 H1           2.8830    -0.0930     1.1690 hn         1 BNM       0.173500
     29 H2          -0.4370    -1.1340     1.7200 ha         1 BNM       0.139000
     30 H3          -2.2300    -1.0550     5.9700 h4         1 BNM       0.168000
     31 H4          -0.7100     0.3810     5.7250 ha         1 BNM       0.137000
     32 H5           2.4020     0.5050     7.8090 hn         1 BNM       0.354800
     33 H6           3.7710     0.0930     5.1930 h1         1 BNM       0.023700
     34 H7           5.8550     0.8400     5.9160 hc         1 BNM       0.024950
     35 H8           4.8760     1.8600     7.0050 hc         1 BNM       0.024950
     36 H9           6.7000     0.1970     8.0670 hc         1 BNM       0.016950
     37 H10          5.0840     0.3040     8.8240 hc         1 BNM       0.016950
     38 H11          6.1190    -1.7890     6.8500 hc         1 BNM       0.016950
     39 H12          5.2700    -2.0550     8.3970 hc         1 BNM       0.016950
     40 H13          3.9830    -2.0430     5.9540 hc         1 BNM       0.024950
     41 H14          3.1870    -1.5810     7.4760 hc         1 BNM       0.024950
     42 H15          2.7120     1.2690     3.3340 ha         1 BNM       0.129000
     43 H16          2.9060     0.5300    -1.3700 hc         1 BNM       0.066700
     44 H17          0.0700    -0.0410    -2.4660 hc         1 BNM       0.053200
     45 H18          1.5800     0.5210    -3.4310 hc         1 BNM       0.053200
     46 H19          1.2770    -2.0710    -1.7590 hc         1 BNM       0.053200
     47 H20          2.7870    -1.5080    -2.7240 hc         1 BNM       0.053200
     48 H21         -2.1740    -1.8510     1.9660 hn         1 BNM       0.189500
@<TRIPOS>BOND
     1     1     2 2   
     2     2     3 1   
     3     2    25 1   
     4     3     4 1   
     5     3    28 1   
     6     4     5 ar  
     7     4    24 ar  
     8     5     6 ar  
     9     5    29 1   
    10     6     7 1   
    11     6    13 ar  
    12     7     8 2   
    13     7    12 1   
    14     8     9 1   
    15     8    30 1   
    16     9    10 1   
    17    10    11 2   
    18    10    12 1   
    19    12    48 1   
    20    13    14 ar  
    21    13    31 1   
    22    14    15 1   
    23    14    24 ar  
    24    15    16 2   
    25    15    17 2   
    26    15    18 1   
    27    18    19 1   
    28    18    32 1   
    29    19    20 1   
    30    19    23 1   
    31    19    33 1   
    32    20    21 1   
    33    20    34 1   
    34    20    35 1   
    35    21    22 1   
    36    21    36 1   
    37    21    37 1   
    38    22    23 1   
    39    22    38 1   
    40    22    39 1   
    41    23    40 1   
    42    23    41 1   
    43    24    42 1   
    44    25    26 1   
    45    25    27 1   
    46    25    43 1   
    47    26    27 1   
    48    26    44 1   
    49    26    45 1   
    50    27    46 1   
    51    27    47 1   
@<TRIPOS>SUBSTRUCTURE
     1 BNM         1 TEMP              0 ****  ****    0 ROOT
