@<TRIPOS>MOLECULE
molecule
   48    51     1     0     0
SMALL
bcc


@<TRIPOS>ATOM
      1 O01          0.0000     0.0000     0.0000 o          1 BNM      -0.598100
      2 C02          1.2130     0.0000     0.0000 c          1 BNM       0.699100
      3 N03          1.8870     0.0000     1.1670 ns         1 BNM      -0.477100
      4 C04          1.1900     0.0990     2.3770 ca         1 BNM       0.043600
      5 C05         -0.0500    -0.5070     2.5140 ca         1 BNM      -0.068000
      6 C06         -0.7400    -0.4070     3.7210 ca         1 BNM      -0.057800
      7 C07         -2.0630    -1.0500     3.8750 cc         1 BNM       0.053400
      8 C08         -2.7470    -0.9640     5.0230 cd         1 BNM      -0.106400
      9 S09         -4.2500    -1.8640     4.7420 ss         1 BNM      -0.196200
     10 C10         -3.8410    -2.2980     3.0720 c          1 BNM       0.711100
     11 O11         -4.5120    -2.9530     2.2930 o          1 BNM      -0.572500
     12 N12         -2.6360    -1.7510     2.8490 ns         1 BNM      -0.450100
     13 C13         -0.1770     0.3010     4.7850 ca         1 BNM      -0.019000
     14 C14          1.0570     0.8990     4.6390 ca         1 BNM      -0.291500
     15 S15          1.7650     1.7930     5.9830 sy         1 BNM       1.421200
     16 O16          2.6860     2.7130     5.4130 o          1 BNM      -0.630300
     17 O17          0.6830     2.1910     6.8130 o          1 BNM      -0.630300
     18 N18          2.6630     0.7190     6.8660 n7         1 BNM      -0.909100
     19 C19          3.8470     0.0920     6.2740 c3         1 BNM       0.243500
     20 C20          5.1200     0.8460     6.7120 c3         1 BNM      -0.094900
     21 C21          5.6370     0.0410     7.9300 c3         1 BNM      -0.084900
     22 C22          5.3480    -1.4250     7.5190 c3         1 BNM      -0.084900
     23 C23          3.9920    -1.3510     6.7880 c3         1 BNM      -0.094900
     24 C24          1.7430     0.7960     3.4430 ca         1 BNM      -0.060000
     25 C25          1.9660    -0.0060    -1.3050 cx         1 BNM      -0.242700
     26 C26          1.1450    -0.0150    -2.5960 cx         1 BNM      -0.104900
     27 C27          1.8940    -1.2740    -2.1570 cx         1 BNM      -0.104900
     28 H1           2.8830    -0.0930     1.1690 hn         1 BNM       0.331500
     29 H2          -0.4370    -1.1340     1.7200 ha         1 BNM       0.160000
     30 H3          -2.2300    -1.0550     5.9700 h4         1 BNM       0.189000
     31 H4          -0.7100     0.3810     5.7250 ha         1 BNM       0.162000
     32 H5           2.4020     0.5050     7.8090 hn         1 BNM       0.458800
     33 H6           3.7710     0.0930     5.1930 h1         1 BNM       0.052700
     34 H7           5.8550     0.8400     5.9160 hc         1 BNM       0.055200
     35 H8           4.8760     1.8600     7.0050 hc         1 BNM       0.055200
     36 H9           6.7000     0.1970     8.0670 hc         1 BNM       0.048200
     37 H10          5.0840     0.3040     8.8240 hc         1 BNM       0.048200
     38 H11          6.1190    -1.7890     6.8500 hc         1 BNM       0.048200
     39 H12          5.2700    -2.0550     8.3970 hc         1 BNM       0.048200
     40 H13          3.9830    -2.0430     5.9540 hc         1 BNM       0.055200
     41 H14          3.1870    -1.5810     7.4760 hc         1 BNM       0.055200
     42 H15          2.7120     1.2690     3.3340 ha         1 BNM       0.154000
     43 H16          2.9060     0.5300    -1.3700 hc         1 BNM       0.092700
     44 H17          0.0700    -0.0410    -2.4660 hc         1 BNM       0.086700
     45 H18          1.5800     0.5210    -3.4310 hc         1 BNM       0.086700
     46 H19          1.2770    -2.0710    -1.7590 hc         1 BNM       0.086700
     47 H20          2.7870    -1.5080    -2.7240 hc         1 BNM       0.086700
     48 H21         -2.1740    -1.8510     1.9660 hn         1 BNM       0.346500
@<TRIPOS>BOND
     1    27    26 1
     2    27    25 1
     3    26    25 1
     4     1     2 2
     5     9     8 1
     6     9    10 1
     7    25     2 1
     8     8     7 2
     9     2     3 1
    10    10    11 2
    11    10    12 1
    12     7    12 1
    13     7     6 1
    14     5     6 ar
    15     5     4 ar
    16     3     4 1
    17     6    13 ar
    18     4    24 ar
    19    13    14 ar
    20    24    14 ar
    21    14    15 1
    22    16    15 2
    23    15    17 2
    24    15    18 1
    25    20    19 1
    26    20    21 1
    27    18    19 1
    28    19    23 1
    29    21    22 1
    30    23    22 1
    31     3    28 1
    32     5    29 1
    33     8    30 1
    34    13    31 1
    35    18    32 1
    36    19    33 1
    37    20    34 1
    38    20    35 1
    39    21    36 1
    40    21    37 1
    41    22    38 1
    42    22    39 1
    43    23    40 1
    44    23    41 1
    45    24    42 1
    46    25    43 1
    47    26    44 1
    48    26    45 1
    49    27    46 1
    50    27    47 1
    51    12    48 1
@<TRIPOS>SUBSTRUCTURE
     1 BNM         1 TEMP              0 ****  ****    0 ROOT
