@<TRIPOS>MOLECULE
BNP
   71    75     1     0     0
SMALL
bcc


@<TRIPOS>ATOM
      1 O1           0.0000     0.0000     0.0000 os         1 BNP      -0.378600
      2 C1           1.4300     0.0000     0.0000 c3         1 BNP       0.164100
      3 C2           1.9460     0.0000     1.4420 c3         1 BNP       0.006600
      4 C3           1.5430    -1.2830     2.1230 ca         1 BNP      -0.116300
      5 C4           0.7510    -1.2440     3.2560 ca         1 BNP      -0.054500
      6 C5           0.3810    -2.4180     3.8820 ca         1 BNP      -0.181000
      7 C6           0.8040    -3.6370     3.3730 ca         1 BNP       0.131100
      8 O2           0.4410    -4.7940     3.9870 os         1 BNP      -0.278900
      9 C8           1.0250    -5.8610     3.2360 c3         1 BNP       0.179400
     10 C9           0.6530    -7.1990     3.8770 c3         1 BNP      -0.050400
     11 C10          1.2780    -8.3410     3.0740 c3         1 BNP       0.203400
     12 O3           0.9300    -9.5910     3.6730 os         1 BNP      -0.389600
     13 C11          1.5390   -10.6130     2.8810 c3         1 BNP       0.259700
     14 C12          1.2100   -11.9620     3.4630 ca         1 BNP      -0.110300
     15 C13          0.0780   -12.6370     3.0460 ca         1 BNP      -0.078000
     16 C14         -0.2240   -13.8770     3.5790 ca         1 BNP      -0.105000
     17 C15          0.6060   -14.4410     4.5300 ca         1 BNP      -0.094000
     18 C16          2.0430   -12.5300     4.4100 ca         1 BNP      -0.078000
     19 C17          1.7380   -13.7660     4.9470 ca         1 BNP      -0.105000
     20 C18          1.6030    -3.6740     2.2400 ca         1 BNP      -0.181000
     21 C19          1.9660    -2.4960     1.6140 ca         1 BNP      -0.054500
     22 C20          3.4740     0.1150     1.4260 c3         1 BNP      -0.021400
     23 C21          3.8760     1.3600     0.6330 c3         1 BNP       0.136800
     24 N0           3.4070     1.2410    -0.7520 n7         1 BNP      -0.569200
     25 C22          1.9410     1.2500    -0.7180 c3         1 BNP       0.105800
     26 C23         -0.4130    -0.6810    -1.1860 c3         1 BNP       0.251700
     27 C24         -1.9180    -0.7150    -1.2470 ca         1 BNP      -0.108300
     28 C33         -2.5880    -1.7600    -0.6900 ca         1 BNP      -0.060000
     29 C25         -2.6030     0.3210    -1.8790 ca         1 BNP      -0.081000
     30 C26         -3.9630     0.3210    -1.9520 ca         1 BNP      -0.093000
     31 C27         -4.6890    -0.7390    -1.3830 ca         1 BNP      -0.031000
     32 C28         -6.0930    -0.7740    -1.4380 ca         1 BNP      -0.090000
     33 C29         -6.7620    -1.8170    -0.8750 ca         1 BNP      -0.098000
     34 C30         -3.9920    -1.7930    -0.7400 ca         1 BNP      -0.039000
     35 C31         -4.7180    -2.8520    -0.1710 ca         1 BNP      -0.084000
     36 C32         -6.0770    -2.8530    -0.2440 ca         1 BNP      -0.102000
     37 H1           1.7950    -0.8820    -0.5120 h1         1 BNP       0.029700
     38 H2           1.5260     0.8450     1.9750 hc         1 BNP       0.039700
     39 H4           0.4200    -0.2920     3.6530 ha         1 BNP       0.108000
     40 H5          -0.2400    -2.3870     4.7690 ha         1 BNP       0.123500
     41 H81          2.1030    -5.7500     3.2300 h1         1 BNP       0.010200
     42 H82          0.6540    -5.8320     2.2190 h1         1 BNP       0.010200
     43 H91          1.0250    -7.2280     4.8940 hc         1 BNP       0.034200
     44 H92         -0.4250    -7.3090     3.8830 hc         1 BNP       0.034200
     45 H101         2.3550    -8.2310     3.0670 h1         1 BNP      -0.008300
     46 H102         0.9060    -8.3130     2.0570 h1         1 BNP      -0.008300
     47 H111         2.6140   -10.4740     2.8770 h1         1 BNP      -0.004300
     48 H112         1.1640   -10.5550     1.8670 h1         1 BNP      -0.004300
     49 H13         -0.5720   -12.1950     2.3010 ha         1 BNP       0.105000
     50 H14         -1.1120   -14.4050     3.2520 ha         1 BNP       0.103000
     51 H15          0.3680   -15.4110     4.9490 ha         1 BNP       0.101000
     52 H16          2.9300   -12.0010     4.7370 ha         1 BNP       0.105000
     53 H17          2.3890   -14.2100     5.6900 ha         1 BNP       0.103000
     54 H18          1.9350    -4.6240     1.8410 ha         1 BNP       0.123500
     55 H19          2.5910    -2.5240     0.7290 ha         1 BNP       0.108000
     56 H201         3.8400     0.2000     2.4420 hc         1 BNP       0.025700
     57 H202         3.8970    -0.7640     0.9550 hc         1 BNP       0.025700
     58 H211         4.9550     1.4560     0.6400 h1         1 BNP       0.007700
     59 H212         3.4290     2.2360     1.0890 h1         1 BNP       0.007700
     60 HN0          3.7340     2.0240    -1.2830 hn         1 BNP       0.253800
     61 H221         1.5590     1.2620    -1.7320 h1         1 BNP       0.015200
     62 H222         1.6000     2.1320    -0.1890 h1         1 BNP       0.015200
     63 H231        -0.0290    -1.6930    -1.1740 h1         1 BNP      -0.001300
     64 H232        -0.0290    -0.1590    -2.0540 h1         1 BNP      -0.001300
     65 H33         -2.0400    -2.6140    -0.3090 ha         1 BNP       0.111000
     66 H25         -2.0460     1.1390    -2.3190 ha         1 BNP       0.103000
     67 H26         -4.4810     1.1330    -2.4460 ha         1 BNP       0.106000
     68 H28         -6.6390     0.0240    -1.9250 ha         1 BNP       0.105000
     69 H29         -7.8440    -1.8420    -0.9190 ha         1 BNP       0.100000
     70 H31         -4.1990    -3.6650     0.3230 ha         1 BNP       0.106000
     71 H32         -6.6350    -3.6720     0.1960 ha         1 BNP       0.101000
@<TRIPOS>BOND
     1     1     2 1   
     2     1    26 1   
     3     2     3 1   
     4     2    25 1   
     5     2    37 1   
     6     3     4 1   
     7     3    22 1   
     8     3    38 1   
     9     4     5 ar  
    10     4    21 ar  
    11     5     6 ar  
    12     5    39 1   
    13     6     7 ar  
    14     6    40 1   
    15     7     8 1   
    16     7    20 ar  
    17     8     9 1   
    18     9    10 1   
    19     9    41 1   
    20     9    42 1   
    21    10    11 1   
    22    10    43 1   
    23    10    44 1   
    24    11    12 1   
    25    11    45 1   
    26    11    46 1   
    27    12    13 1   
    28    13    14 1   
    29    13    47 1   
    30    13    48 1   
    31    14    15 ar  
    32    14    18 ar  
    33    15    16 ar  
    34    15    49 1   
    35    16    17 ar  
    36    16    50 1   
    37    17    19 ar  
    38    17    51 1   
    39    18    19 ar  
    40    18    52 1   
    41    19    53 1   
    42    20    21 ar  
    43    20    54 1   
    44    21    55 1   
    45    22    23 1   
    46    22    56 1   
    47    22    57 1   
    48    23    24 1   
    49    23    58 1   
    50    23    59 1   
    51    24    25 1   
    52    24    60 1   
    53    25    61 1   
    54    25    62 1   
    55    26    27 1   
    56    26    63 1   
    57    26    64 1   
    58    27    28 ar  
    59    27    29 ar  
    60    28    34 ar  
    61    28    65 1   
    62    29    30 ar  
    63    29    66 1   
    64    30    31 ar  
    65    30    67 1   
    66    31    32 ar  
    67    31    34 ar  
    68    32    33 ar  
    69    32    68 1   
    70    33    36 ar  
    71    33    69 1   
    72    34    35 ar  
    73    35    36 ar  
    74    35    70 1   
    75    36    71 1   
@<TRIPOS>SUBSTRUCTURE
     1 BNP         1 TEMP              0 ****  ****    0 ROOT
