@<TRIPOS>MOLECULE
BNQ
   44    47     1     0     0
SMALL
bcc


@<TRIPOS>ATOM
      1 C10          0.0000     0.0000     0.0000 ca         1 BNQ      -0.047000
      2 C13         -6.2260    -0.0060     2.4350 c3         1 BNQ      -0.100400
      3 C15         -8.5470    -0.1310     1.5690 ca         1 BNQ      -0.080800
      4 C17        -10.4170     0.6200     2.8630 ca         1 BNQ      -0.098000
      5 C20         -9.3370    -1.1070     0.9920 ca         1 BNQ      -0.096750
      6 C21         -6.8900     1.2820     0.4230 ca         1 BNQ      -0.080800
      7 C22         -7.0100     2.4940     1.0780 ca         1 BNQ      -0.096750
      8 C24         -6.4990     3.6460    -0.9580 ca         1 BNQ      -0.103000
      9 C26         -6.5750     1.2520    -0.9230 ca         1 BNQ      -0.096750
     10 C05         -2.4790    -0.0040     2.6250 cc         1 BNQ       0.306800
     11 C06          0.0110    -0.0010     2.4130 ca         1 BNQ      -0.020100
     12 C07          1.4030    -0.0010     2.3930 ca         1 BNQ      -0.045000
     13 C08          2.0780     0.0000     1.1930 ca         1 BNQ      -0.099000
     14 C09          1.3730     0.0000     0.0000 ca         1 BNQ      -0.096000
     15 C11         -0.7140    -0.0010     1.2170 ca         1 BNQ       0.094400
     16 C12         -4.7720    -0.0050     2.0390 c          1 BNQ       0.538100
     17 C14         -7.0970    -0.0050     1.1770 c3         1 BNQ       0.082900
     18 C16         -9.0880     0.7350     2.5020 ca         1 BNQ      -0.096750
     19 C18        -11.2070    -0.3590     2.2900 ca         1 BNQ      -0.103000
     20 C19        -10.6680    -1.2210     1.3530 ca         1 BNQ      -0.098000
     21 C23         -6.8140     3.6750     0.3870 ca         1 BNQ      -0.098000
     22 C25         -6.3790     2.4340    -1.6130 ca         1 BNQ      -0.098000
     23 N03         -2.0470    -0.0030     1.4120 nd         1 BNQ      -0.439100
     24 N04         -3.8160    -0.0040     2.9890 ns         1 BNQ      -0.006400
     25 O02         -4.4630    -0.0040     0.8670 o          1 BNQ      -0.558100
     26 S01         -1.1310    -0.0040     3.7540 ss         1 BNQ      -0.245100
     27 H101        -0.5380     0.0000    -0.9400 ha         1 BNQ       0.118000
     28 H132        -6.4400    -0.8910     3.0210 hc         1 BNQ       0.036700
     29 H131        -6.4410     0.8780     3.0230 hc         1 BNQ       0.036700
     30 H171       -10.8400     1.2970     3.5950 ha         1 BNQ       0.101000
     31 H201        -8.9150    -1.7830     0.2580 ha         1 BNQ       0.108750
     32 H221        -7.2570     2.5170     2.1320 ha         1 BNQ       0.108750
     33 H241        -6.3460     4.5720    -1.4990 ha         1 BNQ       0.101000
     34 H261        -6.4810     0.3030    -1.4370 ha         1 BNQ       0.108750
     35 H071         1.9560    -0.0010     3.3240 ha         1 BNQ       0.110000
     36 H081         3.1620     0.0000     1.1820 ha         1 BNQ       0.107000
     37 H091         1.9100     0.0010    -0.9410 ha         1 BNQ       0.106000
     38 H141        -6.8200    -0.8410     0.5460 hc         1 BNQ       0.050700
     39 H161        -8.4690     1.5010     2.9530 ha         1 BNQ       0.108750
     40 H181       -12.2490    -0.4490     2.5720 ha         1 BNQ       0.101000
     41 H191       -11.2870    -1.9880     0.9020 ha         1 BNQ       0.101000
     42 H231        -6.9080     4.6240     0.9010 ha         1 BNQ       0.101000
     43 H251        -6.1320     2.4110    -2.6670 ha         1 BNQ       0.101000
     44 H041        -4.0710    -0.0230     3.9560 hn         1 BNQ       0.173500
@<TRIPOS>BOND
     1     1    14 ar  
     2     1    15 ar  
     3     1    27 1   
     4     2    16 1   
     5     2    17 1   
     6     2    28 1   
     7     2    29 1   
     8     3     5 ar  
     9     3    17 1   
    10     3    18 ar  
    11     4    18 ar  
    12     4    19 ar  
    13     4    30 1   
    14     5    20 ar  
    15     5    31 1   
    16     6     7 ar  
    17     6     9 ar  
    18     6    17 1   
    19     7    21 ar  
    20     7    32 1   
    21     8    21 ar  
    22     8    22 ar  
    23     8    33 1   
    24     9    22 ar  
    25     9    34 1   
    26    10    23 2   
    27    10    24 1   
    28    10    26 1   
    29    11    12 ar  
    30    11    15 ar  
    31    11    26 1   
    32    12    13 ar  
    33    12    35 1   
    34    13    14 ar  
    35    13    36 1   
    36    14    37 1   
    37    15    23 1   
    38    16    24 1   
    39    16    25 2   
    40    17    38 1   
    41    18    39 1   
    42    19    20 ar  
    43    19    40 1   
    44    20    41 1   
    45    21    42 1   
    46    22    43 1   
    47    24    44 1   
@<TRIPOS>SUBSTRUCTURE
     1 BNQ         1 TEMP              0 ****  ****    0 ROOT
