@<TRIPOS>MOLECULE
molecule
   44    47     1     0     0
SMALL
bcc


@<TRIPOS>ATOM
      1 C10          0.0000     0.0000     0.0000 ca         1 BNQ      -0.078000
      2 C13         -6.2260    -0.0060     2.4350 c3         1 BNQ      -0.147400
      3 C15         -8.5470    -0.1310     1.5690 ca         1 BNQ      -0.074800
      4 C17        -10.4170     0.6200     2.8630 ca         1 BNQ      -0.125500
      5 C20         -9.3370    -1.1070     0.9920 ca         1 BNQ      -0.117250
      6 C21         -6.8900     1.2820     0.4230 ca         1 BNQ      -0.074800
      7 C22         -7.0100     2.4940     1.0780 ca         1 BNQ      -0.117250
      8 C24         -6.4990     3.6460    -0.9580 ca         1 BNQ      -0.127500
      9 C26         -6.5750     1.2520    -0.9230 ca         1 BNQ      -0.117250
     10 C05         -2.4790    -0.0040     2.6250 cc         1 BNQ       0.493800
     11 C06          0.0110    -0.0010     2.4130 ca         1 BNQ      -0.052100
     12 C07          1.4030    -0.0010     2.3930 ca         1 BNQ      -0.084000
     13 C08          2.0780     0.0000     1.1930 ca         1 BNQ      -0.127000
     14 C09          1.3730     0.0000     0.0000 ca         1 BNQ      -0.124000
     15 C11         -0.7140    -0.0010     1.2170 ca         1 BNQ       0.149400
     16 C12         -4.7720    -0.0050     2.0390 c          1 BNQ       0.645100
     17 C14         -7.0970    -0.0050     1.1770 c3         1 BNQ       0.039900
     18 C16         -9.0880     0.7350     2.5020 ca         1 BNQ      -0.117250
     19 C18        -11.2070    -0.3590     2.2900 ca         1 BNQ      -0.127500
     20 C19        -10.6680    -1.2210     1.3530 ca         1 BNQ      -0.125500
     21 C23         -6.8140     3.6750     0.3870 ca         1 BNQ      -0.125500
     22 C25         -6.3790     2.4340    -1.6130 ca         1 BNQ      -0.125500
     23 N03         -2.0470    -0.0030     1.4120 nd         1 BNQ      -0.581100
     24 N04         -3.8160    -0.0040     2.9890 ns         1 BNQ      -0.462400
     25 O02         -4.4630    -0.0040     0.8670 o          1 BNQ      -0.516100
     26 S01         -1.1310    -0.0040     3.7540 ss         1 BNQ      -0.174100
     27 H101        -0.5380     0.0000    -0.9400 ha         1 BNQ       0.151000
     28 H132        -6.4400    -0.8910     3.0210 hc         1 BNQ       0.066700
     29 H131        -6.4410     0.8780     3.0230 hc         1 BNQ       0.066700
     30 H171       -10.8400     1.2970     3.5950 ha         1 BNQ       0.128500
     31 H201        -8.9150    -1.7830     0.2580 ha         1 BNQ       0.129500
     32 H221        -7.2570     2.5170     2.1320 ha         1 BNQ       0.129500
     33 H241        -6.3460     4.5720    -1.4990 ha         1 BNQ       0.128500
     34 H261        -6.4810     0.3030    -1.4370 ha         1 BNQ       0.129500
     35 H071         1.9560    -0.0010     3.3240 ha         1 BNQ       0.135000
     36 H081         3.1620     0.0000     1.1820 ha         1 BNQ       0.135000
     37 H091         1.9100     0.0010    -0.9410 ha         1 BNQ       0.136000
     38 H141        -6.8200    -0.8410     0.5460 hc         1 BNQ       0.079700
     39 H161        -8.4690     1.5010     2.9530 ha         1 BNQ       0.129500
     40 H181       -12.2490    -0.4490     2.5720 ha         1 BNQ       0.128500
     41 H191       -11.2870    -1.9880     0.9020 ha         1 BNQ       0.128500
     42 H231        -6.9080     4.6240     0.9010 ha         1 BNQ       0.128500
     43 H251        -6.1320     2.4110    -2.6670 ha         1 BNQ       0.128500
     44 H041        -4.0710    -0.0230     3.9560 hn         1 BNQ       0.335500
@<TRIPOS>BOND
     1     4    18 ar
     2     4    19 ar
     3    18     3 ar
     4    19    20 ar
     5    25    16 2
     6     3    17 1
     7     3     5 ar
     8    17     2 1
     9    17     6 1
    10     7     6 ar
    11     7    21 ar
    12     2    16 1
    13    20     5 ar
    14    16    24 1
    15     6     9 ar
    16    21     8 ar
    17    23    10 2
    18    23    15 1
    19    24    10 1
    20     1    15 ar
    21     1    14 ar
    22     9    22 ar
    23    10    26 1
    24    15    11 ar
    25     8    22 ar
    26    14    13 ar
    27    11    26 1
    28    11    12 ar
    29    13    12 ar
    30     1    27 1
    31     2    28 1
    32     2    29 1
    33     4    30 1
    34     5    31 1
    35     7    32 1
    36     8    33 1
    37     9    34 1
    38    12    35 1
    39    13    36 1
    40    14    37 1
    41    17    38 1
    42    18    39 1
    43    19    40 1
    44    20    41 1
    45    21    42 1
    46    22    43 1
    47    24    44 1
@<TRIPOS>SUBSTRUCTURE
     1 BNQ         1 TEMP              0 ****  ****    0 ROOT
