@<TRIPOS>MOLECULE
BNS
   15    14     1     0     0
SMALL
bcc


@<TRIPOS>ATOM
      1 C1          0.1520    0.1450   -0.1010 c3        1 BNS     -0.119000
      2 C2          1.6360    0.2650   -0.0940 c2        1 BNS     -0.548000
      3 C3          2.4330    0.2480    0.9650 c1        1 BNS      0.177000
      4 C4          1.2850   -0.4430    2.8420 c2        1 BNS     -0.725000
      5 S1          2.0500   -0.1790    4.4290 s6        1 BNS      2.869000
      6 O1          1.2530   -0.9610    5.2990 o         1 BNS     -1.064000
      7 O2          3.3670   -0.6600    4.3000 o         1 BNS     -1.064000
      8 C5          0.3200    0.3700    2.3620 c2        1 BNS     -0.150000
      9 C6         -0.4650    0.1460    1.2140 c1        1 BNS     -0.039000
     10 H1         -0.2960    1.0090   -0.6740 hc        1 BNS      0.118500
     11 H2         -0.1670   -0.7950   -0.6370 hc        1 BNS      0.118500
     12 H3          2.0950    0.3880   -1.0900 ha        1 BNS      0.158000
     13 H5          1.5200   -1.4110    2.3770 h4        1 BNS      0.145000
     14 H6          0.0500    1.2790    2.9470 ha        1 BNS      0.186000
     15 O3          1.9330    1.2110    4.6550 o         1 BNS     -1.064000
@<TRIPOS>BOND
     1    1    2 1   
     2    1    9 1   
     3    1   10 1   
     4    1   11 1   
     5    2    3 1   
     6    2   12 1   
     7    4    5 1   
     8    4    8 1   
     9    4   13 1   
    10    5    6 1   
    11    5    7 1   
    12    5   15 1   
    13    8    9 1   
    14    8   14 1   
@<TRIPOS>SUBSTRUCTURE
     1 BNS         1 TEMP              0 ****  ****    0 ROOT
