@<TRIPOS>MOLECULE
molecule
   15    15     1     0     0
SMALL
bcc


@<TRIPOS>ATOM
      1 C1           0.0000     0.0000     0.0000 ca         1 BNS      -0.122000
      2 C2           1.3820     0.0000     0.0000 ca         1 BNS      -0.172000
      3 C3           2.0740     0.0000     1.1970 ca         1 BNS      -0.037000
      4 C4           1.3830     0.0010     2.3940 ca         1 BNS      -0.256500
      5 S1           2.2640     0.0000     3.9200 s6         1 BNS       1.327100
      6 O1           1.3820    -0.5430     4.8920 o          1 BNS      -0.712533
      7 O2           3.5460    -0.5450     3.6430 o          1 BNS      -0.712533
      8 C5           0.0010     0.0020     2.3950 ca         1 BNS      -0.037000
      9 C6          -0.6910     0.0000     1.1970 ca         1 BNS      -0.172000
     10 H1          -0.5420    -0.0010    -0.9380 ha         1 BNS       0.101000
     11 H2           1.9240    -0.0000    -0.9380 ha         1 BNS       0.107000
     12 H3           3.1570     0.0000     1.1970 ha         1 BNS       0.147000
     13 H5          -0.5410     0.0020     3.3330 ha         1 BNS       0.147000
     14 H6          -1.7740     0.0000     1.1980 ha         1 BNS       0.107000
     15 O3           2.4900     1.4540     4.3100 o          1 BNS      -0.712533
@<TRIPOS>BOND
     1     1     2 ar
     2     1     9 ar
     3     1    10 1
     4     2     3 ar
     5     2    11 1
     6     3     4 ar
     7     3    12 1
     8     4     5 1
     9     4     8 ar
    10     5     6 1
    11     5     7 1
    12     8     9 ar
    13     8    13 1
    14     9    14 1
    15    15     5 1
@<TRIPOS>SUBSTRUCTURE
     1 BNS         1 TEMP              0 ****  ****    0 ROOT
