@<TRIPOS>MOLECULE
molecule
   24    24     1     0     0
SMALL
bcc


@<TRIPOS>ATOM
      1 CAA          0.0000     0.0000     0.0000 c3         1 BNT      -0.088100
      2 CAD          1.5300     0.0000     0.0000 c3         1 BNT      -0.046500
      3 CAC          2.0410     0.0000     1.4420 c3         1 BNT      -0.088100
      4 CAE          2.0320    -1.2300    -0.7110 cc         1 BNT      -0.088400
      5 CAF          1.6810    -2.5700    -0.2040 c          1 BNT       0.566500
      6 OAB          0.9840    -2.6810     0.7850 o          1 BNT      -0.467100
      7 CAG          2.1700    -3.7780    -0.9040 cc         1 BNT      -0.120500
      8 BrAH         1.7150    -5.4950    -0.2570 br         1 BNT      -0.023700
      9 CAL          2.9410    -3.6540    -1.9950 cd         1 BNT      -0.098400
     10 CAM          3.4430    -4.8840    -2.7060 c3         1 BNT      -0.063900
     11 CAK          3.2960    -2.3140    -2.5000 c          1 BNT       0.564500
     12 OAN          3.9940    -2.2020    -3.4870 o          1 BNT      -0.466100
     13 CAJ          2.8020    -1.1060    -1.8030 cd         1 BNT      -0.118500
     14 BrAI         3.2580     0.6110    -2.4500 br         1 BNT      -0.021700
     15 HAA1        -0.3610    -0.7440     0.7000 hc         1 BNT       0.046033
     16 HAA2        -0.3610     0.9780     0.2940 hc         1 BNT       0.046033
     17 HAA3        -0.3610    -0.2340    -0.9940 hc         1 BNT       0.046033
     18 HAD          1.8900     0.8850    -0.5110 hc         1 BNT       0.078700
     19 HAC1         3.0960    -0.2460     1.4510 hc         1 BNT       0.046033
     20 HAC2         1.4940    -0.7350     2.0190 hc         1 BNT       0.046033
     21 HAC3         1.8960     0.9820     1.8760 hc         1 BNT       0.046033
     22 HAM1         2.6010    -5.4730    -3.0470 hc         1 BNT       0.068700
     23 HAM2         4.0450    -4.5880    -3.5570 hc         1 BNT       0.068700
     24 HAM3         4.0450    -5.4740    -2.0250 hc         1 BNT       0.068700
@<TRIPOS>BOND
     1     1     2 1
     2     1    15 1
     3     1    16 1
     4     1    17 1
     5     2     3 1
     6     2     4 1
     7     2    18 1
     8     3    19 1
     9     3    20 1
    10     3    21 1
    11     4     5 1
    12     4    13 2
    13     5     6 2
    14     5     7 1
    15     7     8 1
    16     7     9 2
    17     9    10 1
    18     9    11 1
    19    10    22 1
    20    10    23 1
    21    10    24 1
    22    11    12 2
    23    11    13 1
    24    13    14 1
@<TRIPOS>SUBSTRUCTURE
     1 BNT         1 TEMP              0 ****  ****    0 ROOT
