@<TRIPOS>MOLECULE
BNT
   24    24     1     0     0
SMALL
bcc


@<TRIPOS>ATOM
      1 CAA        -0.0420   -0.4230    0.1180 c3        1 BNT     -0.096100
      2 CAD         1.4260   -0.0860   -0.0660 c3        1 BNT     -0.035500
      3 CAC         2.0410    0.3680    1.2460 c3        1 BNT     -0.096100
      4 CAE         2.1840   -1.2500   -0.6220 cc        1 BNT     -0.079400
      5 CAF         1.9610   -2.5790    0.0250 c         1 BNT      0.568500
      6 OAB         1.7590   -2.7100    1.2320 o         1 BNT     -0.466100
      7 CAG         2.0460   -3.7270   -0.9190 cc        1 BNT     -0.135500
      8 BRAH        0.9400   -5.1950   -0.6140 br        1 BNT     -0.016700
      9 CAL         2.9160   -3.6580   -1.9490 cd        1 BNT     -0.088400
     10 CAM         3.1370   -4.7290   -2.9410 c3        1 BNT     -0.076900
     11 CAK         3.7330   -2.4180   -2.1150 c         1 BNT      0.561500
     12 OAN         4.8690   -2.4460   -2.5890 o         1 BNT     -0.464100
     13 CAJ         3.0540   -1.1780   -1.6520 cd        1 BNT     -0.130500
     14 BRAI        3.4590    0.3990   -2.5680 br        1 BNT     -0.017700
     15 HAA1       -0.4890   -0.7710   -0.8430 hc        1 BNT      0.048200
     16 HAA2       -0.1720   -1.2220    0.8880 hc        1 BNT      0.048200
     17 HAA3       -0.5920    0.4880    0.4580 hc        1 BNT      0.048200
     18 HAD         1.4900    0.7720   -0.7980 hc        1 BNT      0.071700
     19 HAC1        1.4720    1.2440    1.6400 hc        1 BNT      0.048200
     20 HAC2        2.0010   -0.4550    2.0020 hc        1 BNT      0.048200
     21 HAC3        3.1050    0.6690    1.0970 hc        1 BNT      0.048200
     22 HAM1        2.2440   -4.8210   -3.6110 hc        1 BNT      0.071367
     23 HAM2        4.0360   -4.5090   -3.5710 hc        1 BNT      0.071367
     24 HAM3        3.2960   -5.7140   -2.4320 hc        1 BNT      0.071367
@<TRIPOS>BOND
     1    1    2 1   
     2    1   15 1   
     3    1   16 1   
     4    1   17 1   
     5    2    3 1   
     6    2    4 1   
     7    2   18 1   
     8    3   19 1   
     9    3   20 1   
    10    3   21 1   
    11    4    5 1   
    12    4   13 2   
    13    5    6 2   
    14    5    7 1   
    15    7    8 1   
    16    7    9 2   
    17    9   10 1   
    18    9   11 1   
    19   10   22 1   
    20   10   23 1   
    21   10   24 1   
    22   11   12 2   
    23   11   13 1   
    24   13   14 1   
@<TRIPOS>SUBSTRUCTURE
     1 BNT         1 TEMP              0 ****  ****    0 ROOT
