@<TRIPOS>MOLECULE
BNU
   40    42     1     0     0
SMALL
bcc


@<TRIPOS>ATOM
      1 Br           0.0000     0.0000     0.0000 br         1 BNU      -0.156100
      2 CAP          1.8910     0.0000     0.0000 ca         1 BNU      -0.013900
      3 CAF          2.5690     0.0000     1.1850 ca         1 BNU       0.017000
      4 CAT          3.9670    -0.0070     1.1850 ca         1 BNU      -0.208600
      5 CAS          4.7270    -0.0070     2.4460 c          1 BNU       0.611900
      6 OAC          4.1630    -0.0020     3.5270 o          1 BNU      -0.522100
      7 CAQ          6.1950    -0.0140     2.3470 cc         1 BNU      -0.232400
      8 CAO          7.0250    -0.0160     3.5600 c          1 BNU       0.982800
      9 OAD          8.2370    -0.0220     3.4670 o          1 BNU      -0.873800
     10 OAB          6.4430    -0.0100     4.7760 o          1 BNU      -0.873800
     11 CAH          6.7810    -0.0190     1.0980 cd         1 BNU      -0.113000
     12 NAW          6.0560    -0.0180    -0.0290 na         1 BNU      -0.058800
     13 CAI          6.7580    -0.0240    -1.3150 c3         1 BNU       0.117800
     14 CAA          6.9950    -1.4700    -1.7590 c3         1 BNU      -0.018100
     15 CAU          4.6770    -0.0130    -0.0300 ca         1 BNU       0.055600
     16 CAG          3.9720    -0.0120    -1.2270 ca         1 BNU      -0.246000
     17 CAR          2.5870    -0.0060    -1.2110 ca         1 BNU       0.067600
     18 NAV          1.8820    -0.0130    -2.4110 nh         1 BNU      -0.396000
     19 CAL          2.1380     1.2150    -3.1790 c3         1 BNU       0.148800
     20 CAJ          1.2860     1.2050    -4.4500 c3         1 BNU       0.144300
     21 NAN          1.6110     0.0140    -5.2450 n7         1 BNU      -0.588200
     22 CAK          1.3550    -1.2140    -4.4780 c3         1 BNU       0.144300
     23 CAM          2.2070    -1.2050    -3.2060 c3         1 BNU       0.148800
     24 H1           1.9820    -0.0000     2.0950 ha         1 BNU       0.133000
     25 H3           7.8620    -0.0240     1.0260 h4         1 BNU       0.153000
     26 H4           6.1570     0.4880    -2.0570 h1         1 BNU       0.029200
     27 H5           7.7100     0.4820    -1.2090 h1         1 BNU       0.029200
     28 H6           6.2580    -2.1150    -1.2980 hc         1 BNU       0.010367
     29 H7           7.9880    -1.7820    -1.4580 hc         1 BNU       0.010367
     30 H8           6.9080    -1.5350    -2.8370 hc         1 BNU       0.010367
     31 H9           4.4550     0.3280    -2.1360 ha         1 BNU       0.128000
     32 H10          3.1860     1.2600    -3.4480 h1         1 BNU       0.019700
     33 H11          1.8770     2.0770    -2.5770 h1         1 BNU       0.019700
     34 H12          0.2370     1.1840    -4.1810 h1         1 BNU       0.008450
     35 H13          1.4970     2.0940    -5.0320 h1         1 BNU       0.008450
     36 H14          1.0560     0.0080    -6.0780 hn         1 BNU       0.245800
     37 H16          0.3070    -1.2590    -4.2090 h1         1 BNU       0.008450
     38 H17          1.6170    -2.0750    -5.0800 h1         1 BNU       0.008450
     39 H18          3.2560    -1.1830    -3.4760 h1         1 BNU       0.019700
     40 H19          1.9960    -2.0940    -2.6250 h1         1 BNU       0.019700
@<TRIPOS>BOND
     1     1     2 1   
     2     2     3 ar  
     3     2    17 ar  
     4     3     4 ar  
     5     3    24 1   
     6     4     5 1   
     7     4    15 ar  
     8     5     6 2   
     9     5     7 1   
    10     7     8 1   
    11     7    11 2   
    12     8     9 1   
    13     8    10 1   
    14    11    12 1   
    15    11    25 1   
    16    12    13 1   
    17    12    15 1   
    18    13    14 1   
    19    13    26 1   
    20    13    27 1   
    21    14    28 1   
    22    14    29 1   
    23    14    30 1   
    24    15    16 ar  
    25    16    17 ar  
    26    16    31 1   
    27    17    18 1   
    28    18    19 1   
    29    18    23 1   
    30    19    20 1   
    31    19    32 1   
    32    19    33 1   
    33    20    21 1   
    34    20    34 1   
    35    20    35 1   
    36    21    22 1   
    37    21    36 1   
    38    22    23 1   
    39    22    37 1   
    40    22    38 1   
    41    23    39 1   
    42    23    40 1   
@<TRIPOS>SUBSTRUCTURE
     1 BNU         1 TEMP              0 ****  ****    0 ROOT
