@<TRIPOS>MOLECULE
molecule
   46    45     1     0     0
SMALL
bcc


@<TRIPOS>ATOM
      1 C01          0.0000     0.0000     0.0000 c          1 BNV       0.891600
      2 C02          1.5070     0.0000     0.0000 c3         1 BNV      -0.183400
      3 C03          2.0170     0.0000     1.4420 c3         1 BNV      -0.063400
      4 C04          3.5460     0.0010     1.4420 c3         1 BNV      -0.088400
      5 C05          4.0570     0.0010     2.8840 c3         1 BNV      -0.081400
      6 C06          5.5870     0.0000     2.8830 c3         1 BNV      -0.083400
      7 C07          6.0970     0.0010     4.3270 c3         1 BNV      -0.082400
      8 C08          7.6280     0.0010     4.3250 c3         1 BNV      -0.082400
      9 C09          8.1380     0.0020     5.7680 c3         1 BNV      -0.082400
     10 C10          9.6680     0.0010     5.7680 c3         1 BNV      -0.083400
     11 C11         10.1780     0.0020     7.2110 c3         1 BNV      -0.078400
     12 C12         11.7080     0.0020     7.2110 c3         1 BNV      -0.074700
     13 C13         12.2180    -0.1240     8.6480 c3         1 BNV      -0.080400
     14 C14         12.2180     1.3090     6.6000 c3         1 BNV      -0.089100
     15 C15         13.7430    -0.2490     8.6390 c3         1 BNV      -0.092100
     16 O01         -0.6040     0.0060     1.0460 o          1 BNV      -0.858300
     17 O02         -0.6710    -0.0000    -1.1620 o          1 BNV      -0.858300
     18 H1           1.8680     0.8850    -0.5110 hc         1 BNV       0.026700
     19 H2           1.8680    -0.8850    -0.5110 hc         1 BNV       0.026700
     20 H3           1.6560    -0.8850     1.9530 hc         1 BNV       0.044700
     21 H4           1.6550     0.8840     1.9530 hc         1 BNV       0.044700
     22 H5           3.9080    -0.8840     0.9310 hc         1 BNV       0.028700
     23 H6           3.9070     0.8850     0.9310 hc         1 BNV       0.028700
     24 H7           3.6960     0.8850     3.3950 hc         1 BNV       0.038700
     25 H8           3.6960    -0.8840     3.3950 hc         1 BNV       0.038700
     26 H9           5.9480     0.8850     2.3720 hc         1 BNV       0.036200
     27 H10          5.9480    -0.8850     2.3730 hc         1 BNV       0.036200
     28 H11          5.7360     0.8860     4.8370 hc         1 BNV       0.039700
     29 H12          5.7360    -0.8830     4.8380 hc         1 BNV       0.039700
     30 H13          7.9880    -0.8840     3.8150 hc         1 BNV       0.038700
     31 H14          7.9890     0.8850     3.8140 hc         1 BNV       0.038700
     32 H15          7.7770     0.8870     6.2780 hc         1 BNV       0.039700
     33 H16          7.7770    -0.8820     6.2800 hc         1 BNV       0.039700
     34 H17         10.0290     0.8850     5.2570 hc         1 BNV       0.040700
     35 H18         10.0290    -0.8840     5.2580 hc         1 BNV       0.040700
     36 H19          9.8170    -0.8820     7.7220 hc         1 BNV       0.040700
     37 H20          9.8170     0.8870     7.7220 hc         1 BNV       0.040700
     38 H21         12.0680    -0.8350     6.6260 hc         1 BNV       0.049700
     39 H22         11.9310     0.7560     9.2110 hc         1 BNV       0.040200
     40 H23         11.7860    -1.0040     9.1080 hc         1 BNV       0.040200
     41 H24         11.9370     1.3530     5.5550 hc         1 BNV       0.033367
     42 H25         11.7810     2.1490     7.1270 hc         1 BNV       0.033367
     43 H26         13.2970     1.3510     6.6860 hc         1 BNV       0.033367
     44 H27         14.1850     0.7370     8.5530 hc         1 BNV       0.031033
     45 H28         14.0500    -0.8570     7.7970 hc         1 BNV       0.031033
     46 H29         14.0720    -0.7140     9.5600 hc         1 BNV       0.031033
@<TRIPOS>BOND
     1    16     1 1
     2     1    17 1
     3     1     2 1
     4     2     3 1
     5     3     4 1
     6     4     5 1
     7     5     6 1
     8     6     7 1
     9     7     8 1
    10     8     9 1
    11     9    10 1
    12    10    11 1
    13    11    12 1
    14    13    12 1
    15    13    15 1
    16    12    14 1
    17     2    18 1
    18     2    19 1
    19     3    20 1
    20     3    21 1
    21     4    22 1
    22     4    23 1
    23     5    24 1
    24     5    25 1
    25     6    26 1
    26     6    27 1
    27     7    28 1
    28     7    29 1
    29     8    30 1
    30     8    31 1
    31     9    32 1
    32     9    33 1
    33    10    34 1
    34    10    35 1
    35    11    36 1
    36    11    37 1
    37    12    38 1
    38    13    39 1
    39    13    40 1
    40    14    41 1
    41    14    42 1
    42    14    43 1
    43    15    44 1
    44    15    45 1
    45    15    46 1
@<TRIPOS>SUBSTRUCTURE
     1 BNV         1 TEMP              0 ****  ****    0 ROOT
