@<TRIPOS>MOLECULE
molecule
   12    12     1     0     0
SMALL
bcc


@<TRIPOS>ATOM
      1 C1           0.0000     0.0000     0.0000 ca         1 BNZ      -0.128000
      2 C2           1.3820     0.0000     0.0000 ca         1 BNZ      -0.128000
      3 C3           2.0730     0.0000     1.1980 ca         1 BNZ      -0.128000
      4 C4           1.3810     0.0000     2.3940 ca         1 BNZ      -0.128000
      5 C5          -0.0010     0.0010     2.3940 ca         1 BNZ      -0.128000
      6 C6          -0.6910    -0.0010     1.1960 ca         1 BNZ      -0.128000
      7 H1          -0.5410    -0.0010    -0.9380 ha         1 BNZ       0.128000
      8 H2           1.9240     0.0000    -0.9380 ha         1 BNZ       0.128000
      9 H3           3.1560    -0.0000     1.1990 ha         1 BNZ       0.128000
     10 H4           1.9230     0.0010     3.3330 ha         1 BNZ       0.128000
     11 H5          -0.5430     0.0010     3.3320 ha         1 BNZ       0.128000
     12 H6          -1.7750    -0.0010     1.1950 ha         1 BNZ       0.128000
@<TRIPOS>BOND
     1     1     2 ar
     2     1     6 ar
     3     1     7 1
     4     2     3 ar
     5     2     8 1
     6     3     4 ar
     7     3     9 1
     8     4     5 ar
     9     4    10 1
    10     5     6 ar
    11     5    11 1
    12     6    12 1
@<TRIPOS>SUBSTRUCTURE
     1 BNZ         1 TEMP              0 ****  ****    0 ROOT
