@<TRIPOS>MOLECULE
BNZ
   12    12     1     0     0
SMALL
bcc


@<TRIPOS>ATOM
      1 C1         -0.0060   -0.0010   -0.0110 ca        1 BNZ     -0.130000
      2 C2          1.3890   -0.0000   -0.0110 ca        1 BNZ     -0.130000
      3 C3          2.0860    0.0000    1.1980 ca        1 BNZ     -0.130000
      4 C4          1.3880    0.0010    2.4050 ca        1 BNZ     -0.130000
      5 C5         -0.0070    0.0000    2.4050 ca        1 BNZ     -0.130000
      6 C6         -0.7040   -0.0000    1.1960 ca        1 BNZ     -0.130000
      7 H1         -0.5560   -0.0010   -0.9640 ha        1 BNZ      0.130000
      8 H2          1.9390   -0.0000   -0.9630 ha        1 BNZ      0.130000
      9 H3          3.1850    0.0010    1.1980 ha        1 BNZ      0.130000
     10 H4          1.9370    0.0010    3.3580 ha        1 BNZ      0.130000
     11 H5         -0.5580    0.0000    3.3570 ha        1 BNZ      0.130000
     12 H6         -1.8040   -0.0010    1.1960 ha        1 BNZ      0.130000
@<TRIPOS>BOND
     1    1    2 ar  
     2    1    6 ar  
     3    1    7 1   
     4    2    3 ar  
     5    2    8 1   
     6    3    4 ar  
     7    3    9 1   
     8    4    5 ar  
     9    4   10 1   
    10    5    6 ar  
    11    5   11 1   
    12    6   12 1   
@<TRIPOS>SUBSTRUCTURE
     1 BNZ         1 TEMP              0 ****  ****    0 ROOT
