@<TRIPOS>MOLECULE
molecule
   41    42     1     0     0
SMALL
bcc


@<TRIPOS>ATOM
      1 S1           0.0000     0.0000     0.0000 sy         1 BO1       1.226200
      2 O1           1.4210     0.0000     0.0000 o          1 BO1      -0.530300
      3 O2          -0.8230     0.0000     1.1580 o          1 BO1      -0.530300
      4 N1          -0.4490     1.3360    -0.8710 nz         1 BO1      -0.804500
      5 C1          -0.4790    -1.4200    -0.9280 ca         1 BO1      -0.402500
      6 C2          -1.7280    -1.9780    -0.7370 ca         1 BO1       0.014500
      7 C3          -2.1100    -3.0880    -1.4660 ca         1 BO1      -0.207500
      8 C4          -1.2310    -3.6480    -2.3840 ca         1 BO1       0.298600
      9 C5           0.0260    -3.0870    -2.5690 ca         1 BO1      -0.207500
     10 C6           0.3990    -1.9750    -1.8410 ca         1 BO1       0.014500
     11 N2          -1.6100    -4.7740    -3.1190 nu         1 BO1      -0.759600
     12 C7          -2.9370    -5.3640    -2.9220 c3         1 BO1       0.416300
     13 C8          -3.4570    -5.9000    -4.2580 c3         1 BO1       0.098100
     14 C9          -4.8600    -6.4830    -4.0490 c3         1 BO1       0.115100
     15 C10         -4.7980    -7.5110    -2.9120 c3         1 BO1       0.104100
     16 C11         -4.1750    -6.8540    -1.6790 c3         1 BO1       0.136100
     17 C12         -4.1400    -7.8630    -0.5300 c3         1 BO1       0.151400
     18 O3          -2.8470    -6.4280    -1.9780 os         1 BO1      -0.394600
     19 O4          -3.5190    -4.8370    -5.2100 oh         1 BO1      -0.599800
     20 O5          -5.3010    -7.1220    -5.2490 oh         1 BO1      -0.596800
     21 O6          -6.1180    -7.9610    -2.6000 oh         1 BO1      -0.595800
     22 O7          -3.6740    -7.2180     0.6570 oh         1 BO1      -0.609800
     23 HN11         0.0020     1.3190    -1.7640 hn         1 BO1       0.488467
     24 HN12        -0.1790     2.1630    -0.3760 hn         1 BO1       0.488467
     25 H2          -2.4060    -1.5510    -0.0080 ha         1 BO1       0.153500
     26 H3          -3.0700    -3.5540    -1.2810 ha         1 BO1       0.163500
     27 H5           0.7290    -3.5460    -3.2550 ha         1 BO1       0.163500
     28 H6           1.3850    -1.5460    -1.9730 ha         1 BO1       0.153500
     29 HN2         -0.9630    -5.1980    -3.7540 hn         1 BO1       0.460800
     30 H7          -3.6190    -4.6100    -2.5490 h2         1 BO1       0.070700
     31 H8          -2.7940    -6.6770    -4.6180 h1         1 BO1       0.066700
     32 H9          -5.5450    -5.6890    -3.7810 h1         1 BO1       0.063700
     33 H10         -4.1870    -8.3520    -3.2200 h1         1 BO1       0.065700
     34 H11         -4.7700    -5.9960    -1.3920 h1         1 BO1       0.061700
     35 H121        -5.1360    -8.2540    -0.3610 h1         1 BO1       0.046200
     36 H122        -3.4720    -8.6770    -0.7840 h1         1 BO1       0.046200
     37 HO4         -3.1530    -5.1270    -6.0290 ho         1 BO1       0.422000
     38 HO5         -6.1060    -6.7260    -5.5380 ho         1 BO1       0.423000
     39 HO6         -6.2600    -8.8090    -2.9860 ho         1 BO1       0.424000
     40 HO7         -3.7430    -7.8120     1.3860 ho         1 BO1       0.415000
     41 H13         -1.4420     1.3350    -0.9940 hn         1 BO1       0.488467
@<TRIPOS>BOND
     1     1     2 2
     2     1     3 2
     3     1     4 1
     4     1     5 1
     5     4    23 1
     6     4    24 1
     7     5     6 ar
     8     5    10 ar
     9     6     7 ar
    10     6    25 1
    11     7     8 ar
    12     7    26 1
    13     8     9 ar
    14     8    11 1
    15     9    10 ar
    16     9    27 1
    17    10    28 1
    18    11    12 1
    19    11    29 1
    20    12    13 1
    21    12    18 1
    22    12    30 1
    23    13    14 1
    24    13    19 1
    25    13    31 1
    26    14    15 1
    27    14    20 1
    28    14    32 1
    29    15    16 1
    30    15    21 1
    31    15    33 1
    32    16    17 1
    33    16    18 1
    34    16    34 1
    35    17    22 1
    36    17    35 1
    37    17    36 1
    38    19    37 1
    39    20    38 1
    40    21    39 1
    41    22    40 1
    42    41     4 1
@<TRIPOS>SUBSTRUCTURE
     1 BO1         1 TEMP              0 ****  ****    0 ROOT
