@<TRIPOS>MOLECULE
BO5
   50    51     1     0     0
SMALL
bcc


@<TRIPOS>ATOM
      1 O3          0.6850    0.9420    0.4890 o         1 BO5     -0.407100
      2 C18         1.6880    0.3030    0.2170 c         1 BO5      0.603700
      3 N           2.5610   -0.1760    1.3690 n4        1 BO5     -0.601200
      4 C           3.7360    0.7250    1.4950 c3        1 BO5      0.094100
      5 C17         2.2010   -0.0440   -1.1210 ca        1 BO5     -0.263600
      6 C16         2.9240    0.9380   -1.8280 ca        1 BO5      0.224100
      7 O2          3.2040    2.0960   -1.1500 oh        1 BO5     -0.510100
      8 C15         3.3540    0.7100   -3.1370 ca        1 BO5     -0.297000
      9 C14         3.0670   -0.5220   -3.7400 ca        1 BO5      0.237100
     10 O1          3.4610   -0.8050   -5.0130 oh        1 BO5     -0.448100
     11 C13         2.3550   -1.5280   -3.0350 ca        1 BO5     -0.049600
     12 CL          2.0340   -3.0130   -3.7840 cl        1 BO5     -0.018400
     13 C12         1.9170   -1.2820   -1.7280 ca        1 BO5      0.046700
     14 C11         1.1200   -2.3070   -0.9960 c3        1 BO5     -0.180100
     15 C10         1.9800   -3.3490   -0.3140 c         1 BO5      0.610100
     16 O           2.8470   -3.0060    0.5040 o         1 BO5     -0.590100
     17 C9          1.6970   -4.7900   -0.6170 c3        1 BO5     -0.174400
     18 C8          0.8720   -5.4210    0.4910 c3        1 BO5     -0.076400
     19 C7         -0.5810   -4.9900    0.4410 c3        1 BO5     -0.086400
     20 C6         -1.2580   -5.0540    1.7940 c3        1 BO5     -0.077400
     21 C5         -0.8290   -3.9390    2.7300 c3        1 BO5     -0.067200
     22 C4         -1.1060   -2.5930    2.1740 c2        1 BO5     -0.114200
     23 C3         -0.2830   -1.5390    2.2300 c2        1 BO5     -0.246200
     24 C2          1.0480   -1.5510    2.8780 c3        1 BO5     -0.070200
     25 C1          1.8320   -0.2600    2.6780 c3        1 BO5      0.112800
     26 HC1         4.4500    0.3030    2.2510 hx        1 BO5      0.101700
     27 HC2         3.3920    1.7430    1.8170 hx        1 BO5      0.101700
     28 HC3         4.2490    0.8060    0.4980 hx        1 BO5      0.101700
     29 H11C        2.6080   -0.1830    3.4940 hx        1 BO5      0.104700
     30 H12C        1.1450    0.6330    2.7540 hx        1 BO5      0.104700
     31 H2          3.5550    2.7520   -1.7750 ho        1 BO5      0.460000
     32 H15         3.9060    1.4860   -3.6870 ha        1 BO5      0.169000
     33 H1          3.9160   -0.0310   -5.3860 ho        1 BO5      0.449000
     34 H111        0.4040   -2.8050   -1.7090 hc        1 BO5      0.101700
     35 H112        0.4860   -1.8220   -0.1960 hc        1 BO5      0.101700
     36 H91C        1.1670   -4.8890   -1.6000 hc        1 BO5      0.084700
     37 H92C        2.6790   -5.3330   -0.6980 hc        1 BO5      0.084700
     38 H81C        0.9320   -6.5370    0.3890 hc        1 BO5      0.062700
     39 H82C        1.3270   -5.1560    1.4820 hc        1 BO5      0.062700
     40 H71C       -1.1350   -5.6520   -0.2770 hc        1 BO5      0.042700
     41 H72C       -0.6570   -3.9420    0.0440 hc        1 BO5      0.042700
     42 H61C       -1.0340   -6.0400    2.2810 hc        1 BO5      0.058200
     43 H62C       -2.3690   -4.9990    1.6430 hc        1 BO5      0.058200
     44 H51C       -1.4000   -4.0410    3.6960 hc        1 BO5      0.059700
     45 H52C        0.2590   -4.0550    2.9820 hc        1 BO5      0.059700
     46 H4         -2.0950   -2.4870    1.6920 ha        1 BO5      0.140000
     47 H3         -0.6110   -0.5680    1.8190 ha        1 BO5      0.136000
     48 H21C        0.9110   -1.6690    3.9920 hc        1 BO5      0.086700
     49 H22C        1.6510   -2.4380    2.5310 hc        1 BO5      0.086700
     50 HN1         2.8980   -1.1260    1.1160 hn        1 BO5      0.487800
@<TRIPOS>BOND
     1    1    2 2   
     2    2    3 1   
     3    2    5 1   
     4    3    4 1   
     5    3   25 1   
     6    3   50 1   
     7    4   26 1   
     8    4   27 1   
     9    4   28 1   
    10    5    6 ar  
    11    5   13 ar  
    12    6    7 1   
    13    6    8 ar  
    14    7   31 1   
    15    8    9 ar  
    16    8   32 1   
    17    9   10 1   
    18    9   11 ar  
    19   10   33 1   
    20   11   12 1   
    21   11   13 ar  
    22   13   14 1   
    23   14   15 1   
    24   14   34 1   
    25   14   35 1   
    26   15   16 2   
    27   15   17 1   
    28   17   18 1   
    29   17   36 1   
    30   17   37 1   
    31   18   19 1   
    32   18   38 1   
    33   18   39 1   
    34   19   20 1   
    35   19   40 1   
    36   19   41 1   
    37   20   21 1   
    38   20   42 1   
    39   20   43 1   
    40   21   22 1   
    41   21   44 1   
    42   21   45 1   
    43   22   23 2   
    44   22   46 1   
    45   23   24 1   
    46   23   47 1   
    47   24   25 1   
    48   24   48 1   
    49   24   49 1   
    50   25   29 1   
    51   25   30 1   
@<TRIPOS>SUBSTRUCTURE
     1 BO5         1 TEMP              0 ****  ****    0 ROOT
