@<TRIPOS>MOLECULE
molecule
   22    22     1     0     0
SMALL
bcc


@<TRIPOS>ATOM
      1 O11          0.0000     0.0000     0.0000 o          1 BO7      -0.830800
      2 C12          1.2160     0.0000     0.0000 c          1 BO7       0.903200
      3 C13          1.9510     0.0000     1.2730 ca         1 BO7      -0.116600
      4 C18          2.3050    -1.2110     1.8860 ca         1 BO7       0.172600
      5 O19          1.9690    -2.3910     1.3050 os         1 BO7      -0.289400
      6 C22          2.3620    -3.5850     1.9870 c3         1 BO7       0.132200
      7 C17          2.9980    -1.1990     3.0860 ca         1 BO7      -0.271000
      8 C16          3.3410     0.0010     3.6790 ca         1 BO7      -0.094000
      9 C15          2.9980     1.2020     3.0850 ca         1 BO7      -0.271000
     10 C14          2.3110     1.2130     1.8820 ca         1 BO7       0.172600
     11 O20          1.9790     2.3910     1.2990 os         1 BO7      -0.289400
     12 C21          2.3770     3.5850     1.9750 c3         1 BO7       0.132200
     13 OXT          1.8890    -0.0060    -1.1680 o          1 BO7      -0.830800
     14 H17          3.2720    -2.1340     3.5610 ha         1 BO7       0.111000
     15 H221         3.4400    -3.6060     2.0860 h1         1 BO7       0.026033
     16 H222         1.9080    -3.6050     2.9700 h1         1 BO7       0.026033
     17 H223         2.0340    -4.4480     1.4200 h1         1 BO7       0.026033
     18 H16          3.8810     0.0010     4.6180 ha         1 BO7       0.101000
     19 H15          3.2740     2.1360     3.5580 ha         1 BO7       0.111000
     20 H211         1.9220     3.6120     2.9580 h1         1 BO7       0.026033
     21 H212         3.4560     3.6010     2.0760 h1         1 BO7       0.026033
     22 H213         2.0550     4.4480     1.4050 h1         1 BO7       0.026033
@<TRIPOS>BOND
     1     1     2 1
     2     2     3 1
     3     2    13 1
     4     3     4 ar
     5     3    10 ar
     6     4     5 1
     7     4     7 ar
     8     5     6 1
     9     7     8 ar
    10     8     9 ar
    11     9    10 ar
    12    10    11 1
    13    11    12 1
    14     7    14 1
    15     6    15 1
    16     6    16 1
    17     6    17 1
    18     8    18 1
    19     9    19 1
    20    12    20 1
    21    12    21 1
    22    12    22 1
@<TRIPOS>SUBSTRUCTURE
     1 BO7         1 TEMP              0 ****  ****    0 ROOT
