@<TRIPOS>MOLECULE
BO7
   22    22     1     0     0
SMALL
bcc


@<TRIPOS>ATOM
      1 O11         0.2470   -0.4400    0.5280 o         1 BO7     -0.821300
      2 C12         1.4270    0.0070    0.4850 c         1 BO7      0.925200
      3 C13         2.2390    0.0020    1.7770 ca        1 BO7     -0.131600
      4 C18         2.8880   -1.1590    2.2340 ca        1 BO7      0.115100
      5 O19         2.9250   -2.3360    1.4910 os        1 BO7     -0.353900
      6 C22         1.6870   -3.0430    1.4540 c3        1 BO7      0.102700
      7 C17         3.6350   -1.1720    3.4230 ca        1 BO7     -0.172000
      8 C16         3.7490   -0.0100    4.1790 ca        1 BO7     -0.146000
      9 C15         3.1230    1.1580    3.7560 ca        1 BO7     -0.172000
     10 C14         2.3740    1.1560    2.5670 ca        1 BO7      0.115100
     11 O20         1.6940    2.3380    2.2870 os        1 BO7     -0.353900
     12 C21         2.2010    3.0500    1.1590 c3        1 BO7      0.102700
     13 OXT         1.9790    0.4590   -0.5560 o         1 BO7     -0.821300
     14 H17         4.1300   -2.1000    3.7370 ha        1 BO7      0.121000
     15 H221        0.8400   -2.3680    1.1680 h1        1 BO7      0.043700
     16 H222        1.8520   -3.8290    0.6770 h1        1 BO7      0.043700
     17 H223        1.4990   -3.5150    2.4510 h1        1 BO7      0.043700
     18 H16         4.3340   -0.0140    5.1090 ha        1 BO7      0.107000
     19 H15         3.1950    2.0820    4.3450 ha        1 BO7      0.121000
     20 H211        3.1820    3.5170    1.4260 h1        1 BO7      0.043700
     21 H212        2.3070    2.3800    0.2680 h1        1 BO7      0.043700
     22 H213        1.4310    3.8410    0.9770 h1        1 BO7      0.043700
@<TRIPOS>BOND
     1    1    2 1   
     2    2    3 1   
     3    2   13 1   
     4    3    4 ar  
     5    3   10 ar  
     6    4    5 1   
     7    4    7 ar  
     8    5    6 1   
     9    6   15 1   
    10    6   16 1   
    11    6   17 1   
    12    7    8 ar  
    13    7   14 1   
    14    8    9 ar  
    15    8   18 1   
    16    9   10 ar  
    17    9   19 1   
    18   10   11 1   
    19   11   12 1   
    20   12   20 1   
    21   12   21 1   
    22   12   22 1   
@<TRIPOS>SUBSTRUCTURE
     1 BO7         1 TEMP              0 ****  ****    0 ROOT
