@<TRIPOS>MOLECULE
BOA
   14    15     1     0     0
SMALL
bcc


@<TRIPOS>ATOM
      1 O6         -0.0360    0.1580   -0.0580 oh        1 BOA     -0.615300
      2 C6          1.3320    0.1010    0.0090 ca        1 BOA      0.684600
      3 N1          1.9870    0.1010    1.1890 nb        1 BOA     -0.745000
      4 C2          3.3620    0.0410    1.1350 ca        1 BOA      0.714200
      5 BR          4.2270    0.0430    2.8310 br        1 BOA     -0.095200
      6 C5          2.0420    0.0430   -1.2140 ca        1 BOA     -0.331800
      7 C4          3.5080   -0.0180   -1.1450 ca        1 BOA      0.569300
      8 N3          4.1690   -0.0190    0.0530 nb        1 BOA     -0.618000
      9 N7          1.7070    0.0260   -2.5630 na        1 BOA     -0.244300
     10 C8          2.9230   -0.0420   -3.2600 cc        1 BOA      0.440700
     11 N9          4.0130   -0.0700   -2.4670 nd        1 BOA     -0.618700
     12 H6         -0.4050    0.1950    0.8420 ho        1 BOA      0.455000
     13 H7          0.7940    0.0560   -2.9320 hn        1 BOA      0.324700
     14 H8          2.9570   -0.0690   -4.3580 h5        1 BOA      0.079800
@<TRIPOS>BOND
     1    1    2 1   
     2    1   12 1   
     3    2    3 ar  
     4    2    6 ar  
     5    3    4 ar  
     6    4    5 1   
     7    4    8 ar  
     8    6    7 ar  
     9    6    9 1   
    10    7    8 ar  
    11    7   11 1   
    12    9   10 1   
    13    9   13 1   
    14   10   11 2   
    15   10   14 1   
@<TRIPOS>SUBSTRUCTURE
     1 BOA         1 TEMP              0 ****  ****    0 ROOT
