@<TRIPOS>MOLECULE
molecule
   14    15     1     0     0
SMALL
bcc


@<TRIPOS>ATOM
      1 O6           0.0000     0.0000     0.0000 oh         1 BOA      -0.613300
      2 C6           1.3550     0.0000     0.0000 ca         1 BOA       0.709600
      3 N1           2.0330     0.0000     1.1410 nb         1 BOA      -0.785000
      4 C2           3.3540    -0.0010     1.1510 ca         1 BOA       0.767200
      5 Br           4.2510    -0.0030     2.8160 br         1 BOA      -0.079200
      6 C5           2.0660    -0.0060    -1.1980 ca         1 BOA      -0.362800
      7 C4           3.4710    -0.0020    -1.1470 ca         1 BOA       0.637300
      8 N3           4.0680    -0.0030     0.0470 nb         1 BOA      -0.683000
      9 N7           1.7330    -0.0010    -2.5370 na         1 BOA      -0.237300
     10 C8           2.8890    -0.0020    -3.2360 cc         1 BOA       0.463700
     11 N9           3.9060    -0.0030    -2.4210 nd         1 BOA      -0.668700
     12 H6          -0.3140     0.5260     0.7170 ho         1 BOA       0.450000
     13 H7           0.8070     0.0000    -2.9180 hn         1 BOA       0.317700
     14 H8           2.9600    -0.0030    -4.3170 h5         1 BOA       0.085800
@<TRIPOS>BOND
     1     1     2 1
     2     1    12 1
     3     2     3 ar
     4     2     6 ar
     5     3     4 ar
     6     4     5 1
     7     4     8 ar
     8     6     7 ar
     9     6     9 1
    10     7     8 ar
    11     7    11 1
    12     9    10 1
    13     9    13 1
    14    10    11 2
    15    10    14 1
@<TRIPOS>SUBSTRUCTURE
     1 BOA         1 TEMP              0 ****  ****    0 ROOT
