@<TRIPOS>MOLECULE
BOB
   65    65     1     0     0
SMALL
bcc


@<TRIPOS>ATOM
      1 C1           0.0000     0.0000     0.0000 c2         1 BOB       0.383000
      2 N1           1.9960     1.2000    -0.6930 nz         1 BOB       0.852000
      3 C2           6.0230     1.1920     4.9650 c2         1 BOB       0.116000
      4 N2           5.3660    -0.2280     3.1110 ns         1 BOB       0.050000
      5 C3           7.1330     2.8210     8.0950 c2         1 BOB       0.453000
      6 O11         -0.6710    -1.1450     0.2020 o          1 BOB      -0.561000
      7 O12         -0.6050     1.0300    -0.1860 o          1 BOB      -0.561000
      8 O31          7.3600     3.9850     8.7260 o          1 BOB      -0.619500
      9 O32          7.3360     1.7750     8.6650 o          1 BOB      -0.619500
     10 C40          8.7000    -3.2960     3.9920 c3         1 BOB      -0.166000
     11 C42          9.5170    -2.5800     2.9150 c3         1 BOB       0.033000
     12 C43         10.9500    -3.1160     2.9220 c3         1 BOB      -0.172000
     13 C44         11.7990    -2.3150     1.9320 c3         1 BOB      -0.071000
     14 C45         13.2320    -2.8510     1.9380 c3         1 BOB      -0.107000
     15 C46         14.0800    -2.0500     0.9480 c3         1 BOB      -0.108000
     16 C47         15.5130    -2.5860     0.9540 c3         1 BOB      -0.111000
     17 C54          8.6840    -4.7980     3.7050 c3         1 BOB      -0.103000
     18 C55          7.9830    -5.5290     4.8520 c3         1 BOB       0.060000
     19 O56          8.0720    -6.9400     4.6430 oh         1 BOB      -0.326000
     20 O60          8.9260    -2.8130     1.6350 oh         1 BOB      -0.303000
     21 CA1          1.5060     0.0000     0.0000 c3         1 BOB      -0.352000
     22 CA2          5.8550    -0.2280     4.4920 c3         1 BOB      -0.055000
     23 CA3          6.6280     2.8200     6.6750 c3         1 BOB      -0.316000
     24 CB1          2.0180     0.0000     1.4420 c3         1 BOB      -0.087000
     25 CB2          7.2030    -0.9500     4.5550 c3         1 BOB      -0.195000
     26 CD1          4.0450    -0.1260     2.8640 c2         1 BOB       0.225000
     27 OE1          3.2610    -0.0350     3.7840 o          1 BOB      -0.392000
     28 CG1          3.5420    -0.1260     1.4430 c3         1 BOB      -0.147000
     29 SG2          7.0010    -2.6590     3.9850 ss         1 BOB      -0.035000
     30 HN1          1.4480     1.3570    -1.5150 hn         1 BOB       0.005333
     31 HN1A         2.9540     1.0680    -0.9510 hn         1 BOB       0.005333
     32 HN2          6.0130    -0.3030     2.3510 hn         1 BOB       0.082000
     33 HN3          6.6580     0.6780     6.8360 hn         1 BOB       0.109000
     34 H40          9.1480    -3.1190     4.9630 h1         1 BOB       0.096000
     35 H42          9.5290    -1.5160     3.1190 h1         1 BOB       0.048000
     36 H43         10.9450    -2.9890     3.9980 hc         1 BOB       0.092000
     37 H43A        10.6480    -4.1080     2.6090 hc         1 BOB       0.092000
     38 H44         11.3810    -2.4130     0.9370 hc         1 BOB       0.054500
     39 H44A        11.8020    -1.2710     2.2210 hc         1 BOB       0.054500
     40 H45         13.2280    -3.8950     1.6490 hc         1 BOB       0.056000
     41 H45A        13.6490    -2.7530     2.9330 hc         1 BOB       0.056000
     42 H46         14.0850    -1.0060     1.2380 hc         1 BOB       0.051000
     43 H46A        13.6630    -2.1470    -0.0460 hc         1 BOB       0.051000
     44 H47         16.1140    -2.0180     0.2550 hc         1 BOB       0.038333
     45 H47A        15.5100    -3.6300     0.6620 hc         1 BOB       0.038333
     46 H47B        15.9300    -2.4910     1.9490 hc         1 BOB       0.038333
     47 H54          9.7010    -5.1600     3.6150 hc         1 BOB       0.083000
     48 H54A         8.1510    -4.9830     2.7800 hc         1 BOB       0.083000
     49 H55          6.9410    -5.2340     4.8850 h1         1 BOB       0.039500
     50 H55A         8.4610    -5.2720     5.7900 h1         1 BOB       0.039500
     51 HO56         7.6930    -7.3910     5.3790 ho         1 BOB       0.189000
     52 HO60         8.8340    -1.9940     1.1770 ho         1 BOB       0.186000
     53 HA1          1.8670    -0.8840    -0.5110 hx         1 BOB       0.120000
     54 HA2          5.1410    -0.7390     5.1280 h1         1 BOB       0.115000
     55 HA3          5.9320     3.3880     6.0700 hx         1 BOB       0.141000
     56 HA3A         5.8180     2.1520     6.9430 DU         1 BOB       0.090000
     57 HB1          1.5860    -0.8360     1.9780 hc         1 BOB       0.110500
     58 HB1A         1.7320     0.9260     1.9270 hc         1 BOB       0.110500
     59 HB2          7.9160    -0.4390     3.9190 h1         1 BOB       0.089500
     60 HB2A         7.5650    -0.9500     5.5760 h1         1 BOB       0.089500
     61 HG1          3.8280    -1.0520     0.9590 hc         1 BOB       0.052500
     62 HG1A         3.9740     0.7110     0.9080 hc         1 BOB       0.052500
     63 N3           6.4650     1.4390     6.2140 ny         1 BOB       0.130000
     64 H13          1.9230     1.9900    -0.0830 hn         1 BOB       0.005333
     65 O2           5.7600     2.1140     4.2230 o          1 BOB      -0.458000
@<TRIPOS>BOND
     1     1     6 1   
     2     1     7 1   
     3     1    21 1   
     4     2    21 1   
     5     2    30 1   
     6     2    31 1   
     7     2    64 1   
     8     3    22 1   
     9     3    63 1   
    10     3    65 1   
    11     4    22 1   
    12     4    26 1   
    13     4    32 1   
    14     5     8 1   
    15     5     9 1   
    16     5    23 1   
    17    10    11 1   
    18    10    17 1   
    19    10    29 1   
    20    10    34 1   
    21    11    12 1   
    22    11    20 1   
    23    11    35 1   
    24    12    13 1   
    25    12    36 1   
    26    12    37 1   
    27    13    14 1   
    28    13    38 1   
    29    13    39 1   
    30    14    15 1   
    31    14    40 1   
    32    14    41 1   
    33    15    16 1   
    34    15    42 1   
    35    15    43 1   
    36    16    44 1   
    37    16    45 1   
    38    16    46 1   
    39    17    18 1   
    40    17    47 1   
    41    17    48 1   
    42    18    19 1   
    43    18    49 1   
    44    18    50 1   
    45    19    51 1   
    46    20    52 1   
    47    21    24 1   
    48    21    53 1   
    49    22    25 1   
    50    22    54 1   
    51    23    55 1   
    52    23    56 1   
    53    23    63 1   
    54    24    28 1   
    55    24    57 1   
    56    24    58 1   
    57    25    29 1   
    58    25    59 1   
    59    25    60 1   
    60    26    27 1   
    61    26    28 1   
    62    28    61 1   
    63    28    62 1   
    64    33    63 1   
    65    56    63 1   
@<TRIPOS>SUBSTRUCTURE
     1 BOB         1 TEMP              0 ****  ****    0 ROOT
