@<TRIPOS>MOLECULE
molecule
   65    64     1     0     0
SMALL
bcc


@<TRIPOS>ATOM
      1 C1           0.0000     0.0000     0.0000 c          1 BOB       0.873600
      2 N1           1.9960     1.2000    -0.6930 nz         1 BOB      -0.791600
      3 C2           6.0230     1.1920     4.9650 c          1 BOB       0.576100
      4 N2           5.3660    -0.2280     3.1110 ns         1 BOB      -0.551900
      5 C3           7.1330     2.8210     8.0950 c          1 BOB       0.935600
      6 O11         -0.6710    -1.1450     0.2020 o          1 BOB      -0.782300
      7 O12         -0.6050     1.0300    -0.1860 o          1 BOB      -0.782300
      8 O31          7.3600     3.9850     8.7260 o          1 BOB      -0.835300
      9 O32          7.3360     1.7750     8.6650 o          1 BOB      -0.835300
     10 C40          8.7000    -3.2960     3.9920 c3         1 BOB       0.016400
     11 C42          9.5170    -2.5800     2.9150 c3         1 BOB       0.111100
     12 C43         10.9500    -3.1160     2.9220 c3         1 BOB      -0.119400
     13 C44         11.7990    -2.3150     1.9320 c3         1 BOB      -0.054400
     14 C45         13.2320    -2.8510     1.9380 c3         1 BOB      -0.078400
     15 C46         14.0800    -2.0500     0.9480 c3         1 BOB      -0.085400
     16 C47         15.5130    -2.5860     0.9540 c3         1 BOB      -0.091100
     17 C54          8.6840    -4.7980     3.7050 c3         1 BOB      -0.061400
     18 C55          7.9830    -5.5290     4.8520 c3         1 BOB       0.133400
     19 O56          8.0720    -6.9400     4.6430 oh         1 BOB      -0.617800
     20 O60          8.9260    -2.8130     1.6350 oh         1 BOB      -0.600800
     21 CA1          1.5060     0.0000     0.0000 c3         1 BOB      -0.021500
     22 CA2          5.8550    -0.2280     4.4920 c3         1 BOB       0.060700
     23 CA3          6.6280     2.8200     6.6750 c3         1 BOB      -0.211000
     24 CB1          2.0180     0.0000     1.4420 c3         1 BOB      -0.073400
     25 CB2          7.2030    -0.9500     4.5550 c3         1 BOB      -0.000300
     26 CD1          4.0450    -0.1260     2.8640 c          1 BOB       0.672100
     27 OE1          3.2610    -0.0350     3.7840 o          1 BOB      -0.591100
     28 CG1          3.5420    -0.1260     1.4430 c3         1 BOB      -0.178400
     29 SG2          7.0010    -2.6590     3.9850 ss         1 BOB      -0.339200
     30 HN1          1.4480     1.3570    -1.5150 hn         1 BOB       0.438133
     31 HN1A         2.9540     1.0680    -0.9510 hn         1 BOB       0.438133
     32 HN2          6.0130    -0.3030     2.3510 hn         1 BOB       0.313500
     33 HN3          6.6580     0.6780     6.8360 hn         1 BOB       0.333500
     34 H40          9.1480    -3.1190     4.9630 h1         1 BOB       0.073700
     35 H42          9.5290    -1.5160     3.1190 h1         1 BOB       0.033700
     36 H43         10.9450    -2.9890     3.9980 hc         1 BOB       0.072200
     37 H43A        10.6480    -4.1080     2.6090 hc         1 BOB       0.072200
     38 H44         11.3810    -2.4130     0.9370 hc         1 BOB       0.044700
     39 H44A        11.8020    -1.2710     2.2210 hc         1 BOB       0.044700
     40 H45         13.2280    -3.8950     1.6490 hc         1 BOB       0.043700
     41 H45A        13.6490    -2.7530     2.9330 hc         1 BOB       0.043700
     42 H46         14.0850    -1.0060     1.2380 hc         1 BOB       0.039700
     43 H46A        13.6630    -2.1470    -0.0460 hc         1 BOB       0.039700
     44 H47         16.1140    -2.0180     0.2550 hc         1 BOB       0.031367
     45 H47A        15.5100    -3.6300     0.6620 hc         1 BOB       0.031367
     46 H47B        15.9300    -2.4910     1.9490 hc         1 BOB       0.031367
     47 H54          9.7010    -5.1600     3.6150 hc         1 BOB       0.071200
     48 H54A         8.1510    -4.9830     2.7800 hc         1 BOB       0.071200
     49 H55          6.9410    -5.2340     4.8850 h1         1 BOB       0.031700
     50 H55A         8.4610    -5.2720     5.7900 h1         1 BOB       0.031700
     51 HO56         7.6930    -7.3910     5.3790 ho         1 BOB       0.402000
     52 HO60         8.8340    -1.9940     1.1770 ho         1 BOB       0.398000
     53 HA1          1.8670    -0.8840    -0.5110 hx         1 BOB       0.097700
     54 HA2          5.1410    -0.7390     5.1280 h1         1 BOB       0.099700
     55 HA3          5.9320     3.3880     6.0700 h1         1 BOB       0.130200
     56 HA3A         5.8180     2.1520     6.9430 h1         1 BOB       0.130200
     57 HB1          1.5860    -0.8360     1.9780 hc         1 BOB       0.103200
     58 HB1A         1.7320     0.9260     1.9270 hc         1 BOB       0.103200
     59 HB2          7.9160    -0.4390     3.9190 h1         1 BOB       0.074200
     60 HB2A         7.5650    -0.9500     5.5760 h1         1 BOB       0.074200
     61 HG1          3.8280    -1.0520     0.9590 hc         1 BOB       0.044200
     62 HG1A         3.9740     0.7110     0.9080 hc         1 BOB       0.044200
     63 N3           6.4650     1.4390     6.2140 ns         1 BOB      -0.505900
     64 H13          1.9230     1.9900    -0.0830 hn         1 BOB       0.438133
     65 O2           5.7600     2.1140     4.2230 o          1 BOB      -0.642100
@<TRIPOS>BOND
     1     6     1 1
     2    21     1 1
     3     1     7 1
     4     2    21 1
     5     2    30 1
     6     2    31 1
     7    22     3 1
     8     3    63 1
     9     3    65 2
    10    26     4 1
    11     4    22 1
    12     4    32 1
    13     9     5 1
    14     5    23 1
    15     5     8 1
    16    63    23 1
    17    63    33 1
    18    11    10 1
    19    10    29 1
    20    10    17 1
    21    10    34 1
    22    11    20 1
    23    11    12 1
    24    11    35 1
    25    12    13 1
    26    12    36 1
    27    12    37 1
    28    13    14 1
    29    13    38 1
    30    13    39 1
    31    14    15 1
    32    14    40 1
    33    14    41 1
    34    16    15 1
    35    15    42 1
    36    15    43 1
    37    16    44 1
    38    16    45 1
    39    16    46 1
    40    18    17 1
    41    17    47 1
    42    17    48 1
    43    18    19 1
    44    18    49 1
    45    18    50 1
    46    19    51 1
    47    20    52 1
    48    21    24 1
    49    21    53 1
    50    22    25 1
    51    22    54 1
    52    23    55 1
    53    23    56 1
    54    24    28 1
    55    24    57 1
    56    24    58 1
    57    29    25 1
    58    25    59 1
    59    25    60 1
    60    27    26 2
    61    28    26 1
    62    28    61 1
    63    28    62 1
    64    64     2 1
@<TRIPOS>SUBSTRUCTURE
     1 BOB         1 TEMP              0 ****  ****    0 ROOT
