@<TRIPOS>MOLECULE
molecule
   17    16     1     0     0
SMALL
bcc


@<TRIPOS>ATOM
      1 O1           0.0000     0.0000     0.0000 o          1 BOC      -0.537500
      2 C            1.1990     0.0000     0.0000 c          1 BOC       0.408100
      3 O2           1.6750     0.0000     1.3430 os         1 BOC      -0.466900
      4 CT           1.2360     1.1420     2.0800 c3         1 BOC       0.156800
      5 C1          -0.2910     1.1460     2.1090 c3         1 BOC      -0.091767
      6 C2           1.8000     1.0220     3.4940 c3         1 BOC      -0.091767
      7 C3           1.7700     2.3980     1.3940 c3         1 BOC      -0.091767
      8 O3           1.6780    -1.1180    -0.7390 o          1 BOC      -0.537500
      9 H11         -0.6350     1.7270     2.9570 hc         1 BOC       0.027700
     10 H12         -0.6530     0.1280     2.1990 hc         1 BOC       0.027700
     11 H13         -0.6690     1.5840     1.1940 hc         1 BOC       0.027700
     12 H21          1.5140     1.8910     4.0720 hc         1 BOC       0.027700
     13 H22          1.4070     0.1290     3.9650 hc         1 BOC       0.027700
     14 H23          2.8810     0.9590     3.4470 hc         1 BOC       0.027700
     15 H31          2.8380     2.3000     1.2420 hc         1 BOC       0.027700
     16 H32          1.5720     3.2620     2.0170 hc         1 BOC       0.027700
     17 H33          1.2790     2.5240     0.4370 hc         1 BOC       0.027700
@<TRIPOS>BOND
     1     1     2 1
     2     2     3 1
     3     3     4 1
     4     4     5 1
     5     4     6 1
     6     4     7 1
     7     8     2 1
     8     5     9 1
     9     5    10 1
    10     5    11 1
    11     6    12 1
    12     6    13 1
    13     6    14 1
    14     7    15 1
    15     7    16 1
    16     7    17 1
@<TRIPOS>SUBSTRUCTURE
     1 BOC         1 TEMP              0 ****  ****    0 ROOT
