@<TRIPOS>MOLECULE
BOC
   17    16     1     0     0
SMALL
bcc


@<TRIPOS>ATOM
      1 O1          0.4380    0.6360   -0.5340 o         1 BOC     -0.561500
      2 C           1.2550   -0.1790   -0.0430 c         1 BOC      0.505100
      3 O2          1.6790    0.0200    1.2900 os        1 BOC     -0.519900
      4 CT          1.1920    1.1150    2.0500 c3        1 BOC      0.196800
      5 C1         -0.3190    1.0400    2.2380 c3        1 BOC     -0.106100
      6 C2          1.8770    0.9820    3.4150 c3        1 BOC     -0.106100
      7 C3          1.5790    2.4500    1.4230 c3        1 BOC     -0.106100
      8 O3          1.8050   -1.1960   -0.5200 o         1 BOC     -0.561500
      9 H11        -0.5970    0.0590    2.6890 hc        1 BOC      0.028922
     10 H12        -0.8210    1.1320    1.2440 hc        1 BOC      0.028922
     11 H13        -0.6640    1.8610    2.9100 hc        1 BOC      0.028922
     12 H21         1.6100    0.0040    3.8800 hc        1 BOC      0.028922
     13 H22         2.9840    1.0240    3.2900 hc        1 BOC      0.028922
     14 H23         1.5490    1.8110    4.0850 hc        1 BOC      0.028922
     15 H31         1.2610    3.2920    2.0830 hc        1 BOC      0.028922
     16 H32         2.6850    2.4960    1.2820 hc        1 BOC      0.028922
     17 H33         1.0860    2.5470    0.4250 hc        1 BOC      0.028922
@<TRIPOS>BOND
     1    1    2 1   
     2    2    3 1   
     3    2    8 1   
     4    3    4 1   
     5    4    5 1   
     6    4    6 1   
     7    4    7 1   
     8    5    9 1   
     9    5   10 1   
    10    5   11 1   
    11    6   12 1   
    12    6   13 1   
    13    6   14 1   
    14    7   15 1   
    15    7   16 1   
    16    7   17 1   
@<TRIPOS>SUBSTRUCTURE
     1 BOC         1 TEMP              0 ****  ****    0 ROOT
