@<TRIPOS>MOLECULE
BOD
   50    53     1     0     0
SMALL
bcc


@<TRIPOS>ATOM
      1 C18          0.0000     0.0000     0.0000 ca         1 BOD       0.593200
      2 C17          2.0040     0.0000     1.1390 ca         1 BOD       0.714900
      3 C16          0.0690     0.0010     2.3930 ca         1 BOD       0.450200
      4 C12         -2.5890    -1.2300     1.8930 c3         1 BOD       0.143800
      5 C11         -4.1190    -1.2260     1.8510 c3         1 BOD       0.136300
      6 C9          -6.0200    -0.0380     2.5990 ca         1 BOD       0.033600
      7 N5           1.3280     0.0000     0.0000 nb         1 BOD      -0.687000
      8 C13         -2.5860     1.1890     1.9740 c3         1 BOD       0.143800
      9 C8          -6.7320     1.0450     2.0950 ca         1 BOD      -0.167000
     10 C6          -8.7940    -0.0230     2.6810 ca         1 BOD      -0.129000
     11 N7           3.3910    -0.0000     1.1020 nv         1 BOD      -0.537500
     12 C4          -8.1270    -3.3620     4.2940 ca         1 BOD       0.480200
     13 N1          -8.8150    -4.3680     4.8070 nb         1 BOD      -0.667000
     14 C2         -10.2150    -2.2780     3.8240 ca         1 BOD       0.480200
     15 C3          -8.8180    -2.2640     3.7770 cp         1 BOD      -0.321600
     16 N4           1.3930     0.0000     2.3130 nb         1 BOD      -0.675000
     17 N6          -0.7050    -0.0050    -1.1960 nv         1 BOD      -0.642500
     18 C15         -0.6780    -0.0000     1.2260 ca         1 BOD      -0.298000
     19 N3          -2.0820     0.0010     1.2710 nh         1 BOD      -0.375000
     20 C14         -4.1170     1.1930     1.9320 c3         1 BOD       0.136300
     21 N2          -4.6230    -0.0390     2.5540 nh         1 BOD      -0.366000
     22 C7          -8.1120     1.0480     2.1390 ca         1 BOD      -0.063000
     23 C10         -6.6960    -1.1160     3.1510 ca         1 BOD      -0.133000
     24 C5          -8.0880    -1.1120     3.1930 cp         1 BOD       0.010000
     25 N          -10.8280    -3.3270     4.3430 nb         1 BOD      -0.667000
     26 C1         -10.1380    -4.3460     4.8280 ca         1 BOD       0.831300
     27 O          -10.8050    -5.4020     5.3510 os         1 BOD      -0.408100
     28 C          -10.0160    -6.4790     5.8620 c3         1 BOD       0.257700
     29 H1          -0.4220     0.0010     3.3590 h4         1 BOD      -0.010900
     30 H2          -2.2160    -2.0890     1.3480 h1         1 BOD       0.019450
     31 H3          -2.2570    -1.2770     2.9230 h1         1 BOD       0.019450
     32 H4          -4.4950    -2.1190     2.3370 h1         1 BOD       0.025200
     33 H5          -4.4510    -1.2030     0.8200 h1         1 BOD       0.025200
     34 H6          -2.2540     1.1660     3.0050 h1         1 BOD       0.019450
     35 H7          -2.2100     2.0820     1.4880 h1         1 BOD       0.019450
     36 H8          -6.2020     1.8880     1.6680 ha         1 BOD       0.124000
     37 H9          -9.8760    -0.0160     2.7130 ha         1 BOD       0.111000
     38 H10          3.9100     0.5410     1.7650 hn         1 BOD       0.276300
     39 H11          3.8730    -0.5310     0.4020 hn         1 BOD       0.276300
     40 H13        -10.7870    -1.4460     3.4310 h4         1 BOD      -0.007400
     41 H14         -0.8860    -0.8710    -1.6650 hn         1 BOD       0.280300
     42 H15         -0.9850     0.8590    -1.6150 hn         1 BOD       0.280300
     43 H16         -4.4900     2.0510     2.4770 h1         1 BOD       0.025200
     44 H17         -4.4490     1.2390     0.9020 h1         1 BOD       0.025200
     45 H18         -8.6620     1.8930     1.7430 ha         1 BOD       0.103000
     46 H19         -6.1430    -1.9600     3.5450 ha         1 BOD       0.121000
     47 H20         -9.4060    -6.8900     5.0660 h1         1 BOD       0.001700
     48 H21        -10.6680    -7.2510     6.2530 h1         1 BOD       0.001700
     49 H22         -9.3750    -6.1130     6.6550 h1         1 BOD       0.001700
     50 H12         -7.0450    -3.3880     4.2780 h4         1 BOD      -0.007400
@<TRIPOS>BOND
     1     1     7 ar  
     2     1    17 1   
     3     1    18 ar  
     4     2     7 ar  
     5     2    11 1   
     6     2    16 ar  
     7     3    16 ar  
     8     3    18 ar  
     9     3    29 1   
    10     4     5 1   
    11     4    19 1   
    12     4    30 1   
    13     4    31 1   
    14     5    21 1   
    15     5    32 1   
    16     5    33 1   
    17     6     9 ar  
    18     6    21 1   
    19     6    23 ar  
    20     8    19 1   
    21     8    20 1   
    22     8    34 1   
    23     8    35 1   
    24     9    22 ar  
    25     9    36 1   
    26    10    22 ar  
    27    10    24 ar  
    28    10    37 1   
    29    11    38 1   
    30    11    39 1   
    31    12    13 ar  
    32    12    15 ar  
    33    12    50 1   
    34    13    26 ar  
    35    14    15 ar  
    36    14    25 ar  
    37    14    40 1   
    38    15    24 1   
    39    17    41 1   
    40    17    42 1   
    41    18    19 1   
    42    20    21 1   
    43    20    43 1   
    44    20    44 1   
    45    22    45 1   
    46    23    24 ar  
    47    23    46 1   
    48    25    26 ar  
    49    26    27 1   
    50    27    28 1   
    51    28    47 1   
    52    28    48 1   
    53    28    49 1   
@<TRIPOS>SUBSTRUCTURE
     1 BOD         1 TEMP              0 ****  ****    0 ROOT
