@<TRIPOS>MOLECULE
molecule
   37    38     1     0     0
SMALL
bcc


@<TRIPOS>ATOM
      1 N            0.0000     0.0000     0.0000 nz         1 BOH      -0.801600
      2 CA           1.4680     0.0000     0.0000 c3         1 BOH       0.013500
      3 C            1.9700     0.0000     1.4210 c          1 BOH       0.623100
      4 O            1.2420    -0.3590     2.3220 o          1 BOH      -0.520100
      5 CB           1.9790    -1.2500    -0.7200 c3         1 BOH      -0.107100
      6 CAG          6.9160    -0.1940     8.2560 ca         1 BOH      -0.112000
      7 CAH          7.4860     1.0390     8.5150 ca         1 BOH      -0.120000
      8 CAI          6.0770    -0.3590     7.1740 ca         1 BOH      -0.070000
      9 CAJ          6.3780     1.9680     6.5960 ca         1 BOH      -0.128000
     10 CAN          2.9500    -0.2670     6.4260 c          1 BOH       0.491600
     11 CAP          7.2180     2.1210     7.6860 ca         1 BOH       0.106100
     12 CAQ          5.7970     0.7260     6.3370 ca         1 BOH      -0.037000
     13 CAR          3.6910     0.3990     2.9990 cc         1 BOH       0.515300
     14 CAS          3.5970     0.1000     5.2200 cd         1 BOH       0.292800
     15 CAT          4.9010     0.5540     5.1780 cc         1 BOH       0.026600
     16 NAK          2.9980     0.0380     4.0290 nd         1 BOH      -0.644000
     17 NAL          3.2290     0.3990     1.6910 ns         1 BOH      -0.497400
     18 OAD          3.5040    -0.0890     7.4910 o          1 BOH      -0.504100
     19 SAM          5.3030     0.9000     3.4980 ss         1 BOH      -0.165300
     20 H1          -0.3340     0.2200    -0.9180 hn         1 BOH       0.465467
     21 H2          -0.3340    -0.9050     0.2690 hn         1 BOH       0.465467
     22 H4           1.8300     0.8840    -0.5110 hx         1 BOH       0.113700
     23 H5           2.7250    -1.8140    -0.1740 hc         1 BOH       0.090700
     24 H6           2.3660    -0.4000    -1.2680 hc         1 BOH       0.090700
     25 H7           1.2150    -1.8140    -1.2420 hc         1 BOH       0.090700
     26 H8           1.5910    -1.7670     5.7660 hc         1 BOH       0.066367
     27 H9           0.8720    -0.1640     5.9720 hc         1 BOH       0.066367
     28 H10          1.2670    -1.1450     7.3900 hc         1 BOH       0.066367
     29 H11          7.1300    -1.0350     8.9050 ha         1 BOH       0.147000
     30 H12          8.1440     1.1620     9.3670 ha         1 BOH       0.152000
     31 H13          5.6310    -1.3260     6.9760 ha         1 BOH       0.139000
     32 H14          6.1670     2.8120     5.9510 ha         1 BOH       0.141000
     33 H15          3.8300     0.6970     0.9480 hn         1 BOH       0.346500
     34 H16          7.2110     3.8290     8.5070 ho         1 BOH       0.426000
     35 CAA          1.5730    -0.8790     6.3860 c3         1 BOH      -0.176100
     36 HN3         -0.3340     0.6850     0.6490 hn         1 BOH       0.465467
     37 OAF          7.7820     3.3310     7.9460 oh         1 BOH      -0.517100
@<TRIPOS>BOND
     1    37    11 1
     2    11     7 ar
     3    11     9 ar
     4     7     6 ar
     5     9    12 ar
     6     6     8 ar
     7    35    10 1
     8    12     8 ar
     9    12    15 1
    10    15    14 2
    11    15    19 1
    12    10    14 1
    13    10    18 2
    14    14    16 1
    15    19    13 1
    16    16    13 2
    17    13    17 1
    18     4     3 2
    19    17     3 1
    20     3     2 1
    21     5     2 1
    22     2     1 1
    23     1    20 1
    24     1    21 1
    25     2    22 1
    26     5    23 1
    27     5    24 1
    28     5    25 1
    29    35    26 1
    30    35    27 1
    31    35    28 1
    32     6    29 1
    33     7    30 1
    34     8    31 1
    35     9    32 1
    36    17    33 1
    37    37    34 1
    38    36     1 1
@<TRIPOS>SUBSTRUCTURE
     1 BOH         1 TEMP              0 ****  ****    0 ROOT
