@<TRIPOS>MOLECULE
BOH
   37    38     1     0     0
SMALL
bcc


@<TRIPOS>ATOM
      1 N            0.0000     0.0000     0.0000 nz         1 BOH       0.087400
      2 CA           1.4680     0.0000     0.0000 c3         1 BOH      -0.171500
      3 C            1.9700     0.0000     1.4210 c          1 BOH       0.508100
      4 O            1.2420    -0.3590     2.3220 o          1 BOH      -0.578100
      5 CB           1.9790    -1.2500    -0.7200 c3         1 BOH       0.007900
      6 CAG          6.9160    -0.1940     8.2560 ca         1 BOH      -0.076000
      7 CAH          7.4860     1.0390     8.5150 ca         1 BOH      -0.101000
      8 CAI          6.0770    -0.3590     7.1740 ca         1 BOH      -0.051000
      9 CAJ          6.3780     1.9680     6.5960 ca         1 BOH      -0.113000
     10 CAN          2.9500    -0.2670     6.4260 c          1 BOH       0.524600
     11 CAP          7.2180     2.1210     7.6860 ca         1 BOH       0.127100
     12 CAQ          5.7970     0.7260     6.3370 ca         1 BOH      -0.036000
     13 CAR          3.6910     0.3990     2.9990 cc         1 BOH       0.321300
     14 CAS          3.5970     0.1000     5.2200 cd         1 BOH       0.222800
     15 CAT          4.9010     0.5540     5.1780 cc         1 BOH       0.113600
     16 NAK          2.9980     0.0380     4.0290 nd         1 BOH      -0.483000
     17 NAL          3.2290     0.3990     1.6910 ns         1 BOH       0.005600
     18 OAD          3.5040    -0.0890     7.4910 o          1 BOH      -0.537100
     19 SAM          5.3030     0.9000     3.4980 ss         1 BOH      -0.268300
     20 H1          -0.3340     0.2200    -0.9180 hn         1 BOH       0.231800
     21 H2          -0.3340    -0.9050     0.2690 hn         1 BOH       0.231800
     22 H4           1.8300     0.8840    -0.5110 hx         1 BOH       0.090700
     23 H5           2.7250    -1.8140    -0.1740 hc         1 BOH       0.049033
     24 H6           2.3660    -0.4000    -1.2680 hc         1 BOH       0.049033
     25 H7           1.2150    -1.8140    -1.2420 hc         1 BOH       0.049033
     26 H8           1.5910    -1.7670     5.7660 hc         1 BOH       0.029033
     27 H9           0.8720    -0.1640     5.9720 hc         1 BOH       0.029033
     28 H10          1.2670    -1.1450     7.3900 hc         1 BOH       0.029033
     29 H11          7.1300    -1.0350     8.9050 ha         1 BOH       0.114000
     30 H12          8.1440     1.1620     9.3670 ha         1 BOH       0.121000
     31 H13          5.6310    -1.3260     6.9760 ha         1 BOH       0.110000
     32 H14          6.1670     2.8120     5.9510 ha         1 BOH       0.116000
     33 H15          3.8300     0.6970     0.9480 hn         1 BOH       0.176500
     34 H16          7.2110     3.8290     8.5070 ho         1 BOH       0.409000
     35 CAA          1.5730    -0.8790     6.3860 c3         1 BOH      -0.076100
     36 HN3         -0.3340     0.6850     0.6490 hn         1 BOH       0.231800
     37 OAF          7.7820     3.3310     7.9460 oh         1 BOH      -0.496100
@<TRIPOS>BOND
     1     1     2 1   
     2     1    20 1   
     3     1    21 1   
     4     1    36 1   
     5     2     3 1   
     6     2     5 1   
     7     2    22 1   
     8     3     4 2   
     9     3    17 1   
    10     5    23 1   
    11     5    24 1   
    12     5    25 1   
    13     6     7 ar  
    14     6     8 ar  
    15     6    29 1   
    16     7    11 ar  
    17     7    30 1   
    18     8    12 ar  
    19     8    31 1   
    20     9    11 ar  
    21     9    12 ar  
    22     9    32 1   
    23    10    14 1   
    24    10    18 2   
    25    10    35 1   
    26    11    37 1   
    27    12    15 1   
    28    13    16 2   
    29    13    17 1   
    30    13    19 1   
    31    14    15 2   
    32    14    16 1   
    33    15    19 1   
    34    17    33 1   
    35    26    35 1   
    36    27    35 1   
    37    28    35 1   
    38    34    37 1   
@<TRIPOS>SUBSTRUCTURE
     1 BOH         1 TEMP              0 ****  ****    0 ROOT
