@<TRIPOS>MOLECULE
molecule
   47    49     1     0     0
SMALL
bcc


@<TRIPOS>ATOM
      1 C15          0.0000     0.0000     0.0000 ca         1 BOJ      -0.104500
      2 C1           7.1850     4.3510     1.7840 c3         1 BOJ      -0.075400
      3 C3           8.1610     2.1330     2.3080 ca         1 BOJ       0.496600
      4 C8           3.9990     1.1420     0.4460 c3         1 BOJ       0.165300
      5 C4           7.4550     1.0630     1.7830 ca         1 BOJ      -0.181000
      6 C5           8.1740    -0.0180     1.2570 ca         1 BOJ       0.691200
      7 C6          10.1390     1.0640     1.7910 ca         1 BOJ       0.937900
      8 C7           5.5270     1.0630     0.4070 c3         1 BOJ       0.161800
      9 C9           3.9940     0.0010     2.5800 c3         1 BOJ       0.165300
     10 N3           7.5100    -1.1110     0.7210 nv         1 BOJ      -1.081500
     11 N            9.5020     0.0220     1.2800 nb         1 BOJ      -0.773000
     12 N2          11.5260     1.0710     1.7970 nv         1 BOJ      -1.060500
     13 N1           9.4870     2.1030     2.2910 nb         1 BOJ      -0.752000
     14 C            6.4460     5.5550     2.3710 c3         1 BOJ      -0.091100
     15 N4           6.0500     1.0620     1.7800 nh         1 BOJ      -0.601000
     16 C10          5.5220    -0.0780     2.5420 c3         1 BOJ       0.161800
     17 N5           3.4710     0.0010     1.2080 nh         1 BOJ      -0.600000
     18 C11          2.0740     0.0000     1.2040 ca         1 BOJ       0.104600
     19 C16          1.3820     0.0000     0.0000 ca         1 BOJ      -0.167000
     20 C14         -0.6930     0.0050     1.1970 ca         1 BOJ      -0.154000
     21 C13         -0.0050     0.0050     2.3970 ca         1 BOJ      -0.104500
     22 C12          1.3760    -0.0000     2.4050 ca         1 BOJ      -0.167000
     23 H1          -0.5410     0.0000    -0.9380 ha         1 BOJ       0.129500
     24 H2           8.1380     4.6730     1.3830 hc         1 BOJ       0.045700
     25 H3           6.5890     3.9120     0.9930 hc         1 BOJ       0.045700
     26 H4           8.0350     3.7640     3.6700 hc         1 BOJ       0.065700
     27 H5           6.4860     2.9950     3.2990 hc         1 BOJ       0.065700
     28 H6           3.6990     2.0650     0.9260 h1         1 BOJ       0.049950
     29 H7           3.6110     1.1110    -0.5650 h1         1 BOJ       0.049950
     30 H8           5.8280     0.1500    -0.0940 h1         1 BOJ       0.049700
     31 H9           5.9190     1.9200    -0.1270 h1         1 BOJ       0.049700
     32 H10          3.6940     0.9140     3.0810 h1         1 BOJ       0.049950
     33 H11          3.6030    -0.8560     3.1150 h1         1 BOJ       0.049950
     34 H12          7.3200    -1.9100     1.2930 hn         1 BOJ       0.441300
     35 H13          7.2890    -1.1320    -0.2550 hn         1 BOJ       0.441300
     36 H14         12.0240     0.7210     2.5910 hn         1 BOJ       0.443800
     37 H15         12.0280     1.4260     1.0080 hn         1 BOJ       0.443800
     38 H16          5.5390     5.2200     2.8580 hc         1 BOJ       0.034033
     39 H17          6.1940     6.2470     1.5760 hc         1 BOJ       0.034033
     40 H18          7.0820     6.0520     3.0940 hc         1 BOJ       0.034033
     41 H19          5.9100    -0.0460     3.5530 h1         1 BOJ       0.049700
     42 H20          5.8230    -1.0020     2.0630 h1         1 BOJ       0.049700
     43 H21          1.9240    -0.0040    -0.9380 ha         1 BOJ       0.135500
     44 H22         -1.7760     0.0070     1.1950 ha         1 BOJ       0.129000
     45 H23         -0.5510     0.0070     3.3320 ha         1 BOJ       0.129500
     46 H24          1.9130    -0.0000     3.3450 ha         1 BOJ       0.135500
     47 C2           7.4340     3.3190     2.8870 c3         1 BOJ      -0.123700
@<TRIPOS>BOND
     1     9    16 1
     2     9    17 1
     3    22    21 ar
     4    22    18 ar
     5    21    20 ar
     6    16    15 1
     7    17    18 1
     8    17     4 1
     9    18    19 ar
    10    20     1 ar
    11     4     8 1
    12    19     1 ar
    13    15     8 1
    14    15     5 1
    15    10     6 1
    16     5     6 ar
    17     5     3 ar
    18     6    11 ar
    19    47     3 1
    20    47     2 1
    21     3    13 ar
    22    11     7 ar
    23     2    14 1
    24    13     7 ar
    25     7    12 1
    26     1    23 1
    27     2    24 1
    28     2    25 1
    29    47    26 1
    30    47    27 1
    31     4    28 1
    32     4    29 1
    33     8    30 1
    34     8    31 1
    35     9    32 1
    36     9    33 1
    37    10    34 1
    38    10    35 1
    39    12    36 1
    40    12    37 1
    41    14    38 1
    42    14    39 1
    43    14    40 1
    44    16    41 1
    45    16    42 1
    46    19    43 1
    47    20    44 1
    48    21    45 1
    49    22    46 1
@<TRIPOS>SUBSTRUCTURE
     1 BOJ         1 TEMP              0 ****  ****    0 ROOT
