@<TRIPOS>MOLECULE
BOJ
   47    49     1     0     0
SMALL
bcc


@<TRIPOS>ATOM
      1 C15          0.0000     0.0000     0.0000 ca         1 BOJ      -0.073500
      2 C1           7.1850     4.3510     1.7840 c3         1 BOJ      -0.022400
      3 C3           8.1610     2.1330     2.3080 ca         1 BOJ       0.441600
      4 C8           3.9990     1.1420     0.4460 c3         1 BOJ       0.137800
      5 C4           7.4550     1.0630     1.7830 ca         1 BOJ      -0.232000
      6 C5           8.1740    -0.0180     1.2570 ca         1 BOJ       0.512200
      7 C6          10.1390     1.0640     1.7910 ca         1 BOJ       0.716900
      8 C7           5.5270     1.0630     0.4070 c3         1 BOJ       0.129300
      9 C9           3.9940     0.0010     2.5800 c3         1 BOJ       0.137800
     10 N3           7.5100    -1.1110     0.7210 nv         1 BOJ      -0.667500
     11 N            9.5020     0.0220     1.2800 nb         1 BOJ      -0.640000
     12 N2          11.5260     1.0710     1.7970 nv         1 BOJ      -0.640500
     13 N1           9.4870     2.1030     2.2910 nb         1 BOJ      -0.623000
     14 C            6.4460     5.5550     2.3710 c3         1 BOJ       0.006900
     15 N4           6.0500     1.0620     1.7800 nh         1 BOJ      -0.380000
     16 C10          5.5220    -0.0780     2.5420 c3         1 BOJ       0.129300
     17 N5           3.4710     0.0010     1.2080 nh         1 BOJ      -0.365000
     18 C11          2.0740     0.0000     1.2040 ca         1 BOJ       0.023600
     19 C16          1.3820     0.0000     0.0000 ca         1 BOJ      -0.148000
     20 C14         -0.6930     0.0050     1.1970 ca         1 BOJ      -0.128000
     21 C13         -0.0050     0.0050     2.3970 ca         1 BOJ      -0.073500
     22 C12          1.3760    -0.0000     2.4050 ca         1 BOJ      -0.148000
     23 H1          -0.5410     0.0000    -0.9380 ha         1 BOJ       0.100500
     24 H2           8.1380     4.6730     1.3830 hc         1 BOJ       0.016200
     25 H3           6.5890     3.9120     0.9930 hc         1 BOJ       0.016200
     26 H4           8.0350     3.7640     3.6700 hc         1 BOJ       0.034200
     27 H5           6.4860     2.9950     3.2990 hc         1 BOJ       0.034200
     28 H6           3.6990     2.0650     0.9260 h1         1 BOJ       0.024950
     29 H7           3.6110     1.1110    -0.5650 h1         1 BOJ       0.024950
     30 H8           5.8280     0.1500    -0.0940 h1         1 BOJ       0.025950
     31 H9           5.9190     1.9200    -0.1270 h1         1 BOJ       0.025950
     32 H10          3.6940     0.9140     3.0810 h1         1 BOJ       0.024950
     33 H11          3.6030    -0.8560     3.1150 h1         1 BOJ       0.024950
     34 H12          7.3200    -1.9100     1.2930 hn         1 BOJ       0.288300
     35 H13          7.2890    -1.1320    -0.2550 hn         1 BOJ       0.288300
     36 H14         12.0240     0.7210     2.5910 hn         1 BOJ       0.279800
     37 H15         12.0280     1.4260     1.0080 hn         1 BOJ       0.279800
     38 H16          5.5390     5.2200     2.8580 hc         1 BOJ       0.001033
     39 H17          6.1940     6.2470     1.5760 hc         1 BOJ       0.001033
     40 H18          7.0820     6.0520     3.0940 hc         1 BOJ       0.001033
     41 H19          5.9100    -0.0460     3.5530 h1         1 BOJ       0.025950
     42 H20          5.8230    -1.0020     2.0630 h1         1 BOJ       0.025950
     43 H21          1.9240    -0.0040    -0.9380 ha         1 BOJ       0.117500
     44 H22         -1.7760     0.0070     1.1950 ha         1 BOJ       0.103000
     45 H23         -0.5510     0.0070     3.3320 ha         1 BOJ       0.100500
     46 H24          1.9130    -0.0000     3.3450 ha         1 BOJ       0.117500
     47 C2           7.4340     3.3190     2.8870 c3         1 BOJ      -0.076700
@<TRIPOS>BOND
     1     1    19 ar  
     2     1    20 ar  
     3     1    23 1   
     4     2    14 1   
     5     2    24 1   
     6     2    25 1   
     7     2    47 1   
     8     3     5 ar  
     9     3    13 ar  
    10     3    47 1   
    11     4     8 1   
    12     4    17 1   
    13     4    28 1   
    14     4    29 1   
    15     5     6 ar  
    16     5    15 1   
    17     6    10 1   
    18     6    11 ar  
    19     7    11 ar  
    20     7    12 1   
    21     7    13 ar  
    22     8    15 1   
    23     8    30 1   
    24     8    31 1   
    25     9    16 1   
    26     9    17 1   
    27     9    32 1   
    28     9    33 1   
    29    10    34 1   
    30    10    35 1   
    31    12    36 1   
    32    12    37 1   
    33    14    38 1   
    34    14    39 1   
    35    14    40 1   
    36    15    16 1   
    37    16    41 1   
    38    16    42 1   
    39    17    18 1   
    40    18    19 ar  
    41    18    22 ar  
    42    19    43 1   
    43    20    21 ar  
    44    20    44 1   
    45    21    22 ar  
    46    21    45 1   
    47    22    46 1   
    48    26    47 1   
    49    27    47 1   
@<TRIPOS>SUBSTRUCTURE
     1 BOJ         1 TEMP              0 ****  ****    0 ROOT
