@<TRIPOS>MOLECULE
BOL
   26    27     1     0     0
SMALL
bcc


@<TRIPOS>ATOM
      1 I            0.0000     0.0000     0.0000 i          1 BOL      -0.209900
      2 N            2.7410    -0.0000     3.6550 ns         1 BOL      -0.038100
      3 O            0.8460     0.0000     2.4950 o          1 BOL      -0.613100
      4 C1           2.0950     0.0000     0.0000 ca         1 BOL       0.229900
      5 C2           2.7960     0.0000     1.2080 ca         1 BOL      -0.144600
      6 C3           4.1920     0.0010     1.1980 ca         1 BOL      -0.081000
      7 C4           4.8700     0.0010    -0.0030 ca         1 BOL      -0.108000
      8 C5           4.1700     0.0010    -1.1970 ca         1 BOL      -0.073000
      9 C6           2.7870    -0.0040    -1.1950 ca         1 BOL      -0.095000
     10 C7           2.0620     0.0000     2.4910 c          1 BOL       0.577700
     11 C8           2.0510     0.0980     4.8670 ca         1 BOL      -0.091400
     12 C9           0.8060    -0.5020     5.0100 ca         1 BOL      -0.118500
     13 C10          0.1270    -0.4050     6.2080 ca         1 BOL      -0.084500
     14 C11          0.6850     0.2900     7.2660 ca         1 BOL      -0.114000
     15 C12          1.9240     0.8900     7.1270 ca         1 BOL      -0.084500
     16 C13          2.6100     0.7910     5.9320 ca         1 BOL      -0.118500
     17 HN           3.7360    -0.1130     3.6540 hn         1 BOL       0.170500
     18 H3           4.7410     0.0010     2.1320 ha         1 BOL       0.104000
     19 H4           5.9540     0.0030    -0.0120 ha         1 BOL       0.107000
     20 H5           4.7080    -0.0000    -2.1370 ha         1 BOL       0.106000
     21 H6           2.2450    -0.0040    -2.1330 ha         1 BOL       0.119000
     22 H9           0.3690    -1.0460     4.1810 ha         1 BOL       0.125000
     23 H10         -0.8440    -0.8730     6.3200 ha         1 BOL       0.102500
     24 H11          0.1500     0.3670     8.2040 ha         1 BOL       0.102000
     25 H12          2.3590     1.4310     7.9580 ha         1 BOL       0.102500
     26 H13          3.5800     1.2610     5.8240 ha         1 BOL       0.125000
@<TRIPOS>BOND
     1     1     4 1   
     2     2    10 1   
     3     2    11 1   
     4     2    17 1   
     5     3    10 2   
     6     4     5 ar  
     7     4     9 ar  
     8     5     6 ar  
     9     5    10 1   
    10     6     7 ar  
    11     6    18 1   
    12     7     8 ar  
    13     7    19 1   
    14     8     9 ar  
    15     8    20 1   
    16     9    21 1   
    17    11    12 ar  
    18    11    16 ar  
    19    12    13 ar  
    20    12    22 1   
    21    13    14 ar  
    22    13    23 1   
    23    14    15 ar  
    24    14    24 1   
    25    15    16 ar  
    26    15    25 1   
    27    16    26 1   
@<TRIPOS>SUBSTRUCTURE
     1 BOL         1 TEMP              0 ****  ****    0 ROOT
