@<TRIPOS>MOLECULE
BOM
   47    46     1     0     0
SMALL
bcc


@<TRIPOS>ATOM
      1 O1         -0.2690    1.0400    0.2320 oh        1 BOM     -0.601800
      2 C2          0.6760    0.0650    0.6430 c3        1 BOM      0.131400
      3 C4          1.7500    0.7920    1.4340 c3        1 BOM     -0.084400
      4 C7          2.8060   -0.1790    1.9140 c3        1 BOM     -0.078400
      5 C10         3.8830    0.5330    2.7040 c3        1 BOM     -0.078400
      6 C13         4.9410   -0.4350    3.1860 c3        1 BOM     -0.079400
      7 C16         6.0190    0.2770    3.9740 c3        1 BOM     -0.079400
      8 C19         7.0790   -0.6910    4.4550 c3        1 BOM     -0.079400
      9 C22         8.1570    0.0230    5.2420 c3        1 BOM     -0.078400
     10 C25         9.2170   -0.9490    5.7210 c3        1 BOM     -0.052200
     11 C28        10.2860   -0.2730    6.4920 c2        1 BOM     -0.153200
     12 C31        11.3520   -0.8880    7.0260 ce        1 BOM     -0.145000
     13 C33        11.6190   -2.3060    6.9300 ce        1 BOM     -0.146000
     14 C35        12.6900   -2.9190    7.4550 c2        1 BOM     -0.152200
     15 C37        13.7660   -2.2410    8.2140 c3        1 BOM     -0.053200
     16 C39        14.8410   -3.2080    8.6710 c3        1 BOM     -0.079400
     17 C42        15.9260   -2.4990    9.4400 c3        1 BOM     -0.093100
     18 HO1        -0.9470    0.5720   -0.2700 ho        1 BOM      0.398000
     19 H21         0.1730   -0.7110    1.2800 h1        1 BOM      0.019700
     20 H22         1.1210   -0.4390   -0.2570 h1        1 BOM      0.019700
     21 H41         2.2140    1.5820    0.7880 hc        1 BOM      0.055700
     22 H42         1.2770    1.3140    2.3060 hc        1 BOM      0.055700
     23 H71         2.3300   -0.9690    2.5540 hc        1 BOM      0.039700
     24 H72         3.2680   -0.7010    1.0340 hc        1 BOM      0.039700
     25 H101        4.3580    1.3230    2.0630 hc        1 BOM      0.041700
     26 H102        3.4210    1.0550    3.5830 hc        1 BOM      0.041700
     27 H131        5.4020   -0.9580    2.3060 hc        1 BOM      0.039700
     28 H132        4.4660   -1.2240    3.8260 hc        1 BOM      0.039700
     29 H161        5.5590    0.7990    4.8540 hc        1 BOM      0.040700
     30 H162        6.4940    1.0660    3.3330 hc        1 BOM      0.040700
     31 H191        7.5380   -1.2140    3.5750 hc        1 BOM      0.039700
     32 H192        6.6040   -1.4790    5.0970 hc        1 BOM      0.039700
     33 H221        7.6980    0.5440    6.1220 hc        1 BOM      0.041700
     34 H222        8.6320    0.8110    4.6000 hc        1 BOM      0.041700
     35 H251        9.6670   -1.4760    4.8350 hc        1 BOM      0.050700
     36 H252        8.7350   -1.7400    6.3600 hc        1 BOM      0.050700
     37 H281       10.1670    0.8170    6.6180 ha        1 BOM      0.121000
     38 H311       12.0970   -0.2940    7.5850 ha        1 BOM      0.121000
     39 H331       10.8690   -2.9010    6.3780 ha        1 BOM      0.121000
     40 H351       12.8090   -4.0090    7.3300 ha        1 BOM      0.121000
     41 H371       14.2330   -1.4420    7.5750 hc        1 BOM      0.050700
     42 H372       13.3260   -1.7240    9.1110 hc        1 BOM      0.050700
     43 H391       15.2860   -3.7220    7.7780 hc        1 BOM      0.040700
     44 H392       14.3800   -4.0020    9.3150 hc        1 BOM      0.040700
     45 H421       15.5060   -2.0000   10.3470 hc        1 BOM      0.033033
     46 H422       16.4140   -1.7190    8.8060 hc        1 BOM      0.033033
     47 H423       16.7070   -3.2260    9.7680 hc        1 BOM      0.033033
@<TRIPOS>BOND
     1    1    2 1
     2    1   18 1
     3    2    3 1
     4    2   19 1
     5    2   20 1
     6    3    4 1
     7    3   21 1
     8    3   22 1
     9    4    5 1
    10    4   23 1
    11    4   24 1
    12    5    6 1
    13    5   25 1
    14    5   26 1
    15    6    7 1
    16    6   27 1
    17    6   28 1
    18    7    8 1
    19    7   29 1
    20    7   30 1
    21    8    9 1
    22    8   31 1
    23    8   32 1
    24    9   10 1
    25    9   33 1
    26    9   34 1
    27   10   11 1
    28   10   35 1
    29   10   36 1
    30   11   12 2
    31   11   37 1
    32   12   13 1
    33   12   38 1
    34   13   14 2
    35   13   39 1
    36   14   15 1
    37   14   40 1
    38   15   16 1
    39   15   41 1
    40   15   42 1
    41   16   17 1
    42   16   43 1
    43   16   44 1
    44   17   45 1
    45   17   46 1
    46   17   47 1
@<TRIPOS>SUBSTRUCTURE
     1 BOM         1 TEMP              0 ****  ****    0 ROOT
