@<TRIPOS>MOLECULE
molecule
   16    16     1     0     0
SMALL
bcc


@<TRIPOS>ATOM
      1 C2           0.0000     0.0000     0.0000 ca         1 BOP       0.131100
      2 C3           1.3870     0.0000     0.0000 ca         1 BOP      -0.190500
      3 C4           2.0770     0.0000     1.1970 ca         1 BOP      -0.066000
      4 C5           1.3850    -0.0060     2.3940 ca         1 BOP      -0.054900
      5 C6           0.0030    -0.0090     2.3970 ca         1 BOP      -0.066000
      6 O1          -0.6800     0.0030    -1.1760 os         1 BOP      -0.293900
      7 C7           0.2970     0.0100    -2.2180 c3         1 BOP       0.103700
      8 Br1          2.3310    -0.0100     4.0320 br         1 BOP      -0.099100
      9 C1          -0.6910    -0.0060     1.2030 ca         1 BOP      -0.190500
     10 H3           1.9290     0.0050    -0.9380 ha         1 BOP       0.149000
     11 H4           3.1600     0.0010     1.1980 ha         1 BOP       0.146000
     12 H6          -0.5360    -0.0140     3.3370 ha         1 BOP       0.146000
     13 H71         -0.2020     0.0140    -3.1800 h1         1 BOP       0.046367
     14 H72          0.9170    -0.8740    -2.1370 h1         1 BOP       0.046367
     15 H73          0.9150     0.8950    -2.1280 h1         1 BOP       0.046367
     16 H1          -1.7740    -0.0070     1.2060 ha         1 BOP       0.149000
@<TRIPOS>BOND
     1     1     2 ar
     2     1     6 1
     3     1     9 ar
     4     2     3 ar
     5     2    10 1
     6     3     4 ar
     7     3    11 1
     8     4     5 ar
     9     4     8 1
    10     5     9 ar
    11     5    12 1
    12     6     7 1
    13     7    13 1
    14     7    14 1
    15     7    15 1
    16     9    16 1
@<TRIPOS>SUBSTRUCTURE
     1 BOP         1 TEMP              0 ****  ****    0 ROOT
