@<TRIPOS>MOLECULE
BOP
   16    16     1     0     0
SMALL
bcc


@<TRIPOS>ATOM
      1 C2          0.1440   -0.0020    0.0130 ca        1 BOP      0.138100
      2 C3          1.5410    0.0040    0.0890 ca        1 BOP     -0.182500
      3 C4          2.1580    0.0040    1.3400 ca        1 BOP     -0.069500
      4 C5          1.3910   -0.0010    2.5060 ca        1 BOP     -0.063900
      5 C6         -0.0080   -0.0060    2.4220 ca        1 BOP     -0.069500
      6 O1         -0.5770   -0.0030   -1.1640 os        1 BOP     -0.323900
      7 C7          0.1830    0.0030   -2.3670 c3        1 BOP      0.111700
      8 BR1         2.2270    0.0010    4.1800 br        1 BOP     -0.090100
      9 C1         -0.6370   -0.0070    1.1850 ca        1 BOP     -0.182500
     10 H3          2.1600    0.0070   -0.8190 ha        1 BOP      0.148500
     11 H4          3.2580    0.0080    1.3950 ha        1 BOP      0.147500
     12 H6         -0.6190   -0.0100    3.3390 ha        1 BOP      0.147500
     13 H71         0.8120    0.9240   -2.4320 h1        1 BOP      0.047033
     14 H72        -0.6000    0.0020   -3.1680 h1        1 BOP      0.047033
     15 H73         0.8200   -0.9120   -2.4370 h1        1 BOP      0.047033
     16 H1         -1.7340   -0.0110    1.1050 ha        1 BOP      0.148500
@<TRIPOS>BOND
     1    1    2 ar  
     2    1    6 1   
     3    1    9 ar  
     4    2    3 ar  
     5    2   10 1   
     6    3    4 ar  
     7    3   11 1   
     8    4    5 ar  
     9    4    8 1   
    10    5    9 ar  
    11    5   12 1   
    12    6    7 1   
    13    7   13 1   
    14    7   14 1   
    15    7   15 1   
    16    9   16 1   
@<TRIPOS>SUBSTRUCTURE
     1 BOP         1 TEMP              0 ****  ****    0 ROOT
