@<TRIPOS>MOLECULE
molecule
   33    34     1     0     0
SMALL
bcc


@<TRIPOS>ATOM
      1 N1           0.0000     0.0000     0.0000 nz         1 BOS      -0.806500
      2 S1           1.6560     0.0000     0.0000 sy         1 BOS       1.230200
      3 O1           2.0420     0.0000     1.3680 o          1 BOS      -0.525800
      4 O2           2.0430     0.9700    -0.9630 o          1 BOS      -0.525800
      5 C1           2.1830    -1.5520    -0.6460 ca         1 BOS      -0.373500
      6 C2           2.3900    -1.6990    -2.0050 ca         1 BOS      -0.007000
      7 C3           2.8020    -2.9150    -2.5140 ca         1 BOS      -0.160500
      8 C4           3.0110    -3.9900    -1.6600 ca         1 BOS       0.173600
      9 C5           2.8020    -3.8390    -0.2950 ca         1 BOS      -0.160500
     10 C6           2.3950    -2.6190     0.2080 ca         1 BOS      -0.007000
     11 N2           3.4290    -5.2220    -2.1720 ns         1 BOS      -0.478100
     12 C7           3.0170    -6.3680    -1.5940 c          1 BOS       0.672700
     13 O3           2.2050    -6.3340    -0.6890 o          1 BOS      -0.547100
     14 C8           3.5530    -7.6600    -2.0560 ca         1 BOS      -0.141600
     15 C9           4.4880    -7.7040    -3.0950 ca         1 BOS      -0.100000
     16 C10          4.9840    -8.9150    -3.5220 ca         1 BOS      -0.122000
     17 C11          4.5610   -10.0950    -2.9280 ca         1 BOS      -0.084000
     18 C12          3.6410   -10.0700    -1.9020 ca         1 BOS      -0.121000
     19 C13          3.1330    -8.8570    -1.4520 ca         1 BOS       0.096900
     20 S2           1.9540    -8.8200    -0.1410 sh         1 BOS      -0.273700
     21 HN11        -0.3340    -0.7500     0.5730 hn         1 BOS       0.490800
     22 HN12        -0.3340    -0.1210    -0.9360 hn         1 BOS       0.490800
     23 H2           2.2270    -0.8610    -2.6710 ha         1 BOS       0.157000
     24 H3           2.9640    -3.0300    -3.5790 ha         1 BOS       0.178000
     25 H5           2.9660    -4.6740     0.3740 ha         1 BOS       0.178000
     26 H6           2.2320    -2.5000     1.2730 ha         1 BOS       0.157000
     27 HN2          4.0320    -5.2530    -2.9700 hn         1 BOS       0.344500
     28 H9           4.8220    -6.7860    -3.5630 ha         1 BOS       0.123000
     29 H10          5.7080    -8.9460    -4.3270 ha         1 BOS       0.147000
     30 H11          4.9560   -11.0430    -3.2730 ha         1 BOS       0.150000
     31 H12          3.3180   -10.9950    -1.4420 ha         1 BOS       0.154000
     32 HS2          0.9420    -9.6270    -0.4340 hs         1 BOS       0.198800
     33 H13         -0.3340     0.8700     0.3650 hn         1 BOS       0.490800
@<TRIPOS>BOND
     1     1     2 1
     2     1    21 1
     3     1    22 1
     4     2     3 2
     5     2     4 2
     6     2     5 1
     7     5     6 ar
     8     5    10 ar
     9     6     7 ar
    10     6    23 1
    11     7     8 ar
    12     7    24 1
    13     8     9 ar
    14     8    11 1
    15     9    10 ar
    16     9    25 1
    17    10    26 1
    18    11    12 1
    19    11    27 1
    20    12    13 2
    21    12    14 1
    22    14    15 ar
    23    14    19 ar
    24    15    16 ar
    25    15    28 1
    26    16    17 ar
    27    16    29 1
    28    17    18 ar
    29    17    30 1
    30    18    19 ar
    31    18    31 1
    32    19    20 1
    33    20    32 1
    34    33     1 1
@<TRIPOS>SUBSTRUCTURE
     1 BOS         1 TEMP              0 ****  ****    0 ROOT
