@<TRIPOS>MOLECULE
BOS
   33    34     1     0     0
SMALL
bcc


@<TRIPOS>ATOM
      1 N1           0.0000     0.0000     0.0000 nz         1 BOS      -0.132500
      2 S1           1.6560     0.0000     0.0000 sy         1 BOS       0.938200
      3 O1           2.0420     0.0000     1.3680 o          1 BOS      -0.500800
      4 O2           2.0430     0.9700    -0.9630 o          1 BOS      -0.500800
      5 C1           2.1830    -1.5520    -0.6460 ca         1 BOS      -0.262500
      6 C2           2.3900    -1.6990    -2.0050 ca         1 BOS       0.037500
      7 C3           2.8020    -2.9150    -2.5140 ca         1 BOS      -0.144000
      8 C4           3.0110    -3.9900    -1.6600 ca         1 BOS       0.032600
      9 C5           2.8020    -3.8390    -0.2950 ca         1 BOS      -0.144000
     10 C6           2.3950    -2.6190     0.2080 ca         1 BOS       0.037500
     11 N2           3.4290    -5.2220    -2.1720 ns         1 BOS      -0.049100
     12 C7           3.0170    -6.3680    -1.5940 c          1 BOS       0.584700
     13 O3           2.2050    -6.3340    -0.6890 o          1 BOS      -0.573100
     14 C8           3.5530    -7.6600    -2.0560 ca         1 BOS      -0.144600
     15 C9           4.4880    -7.7040    -3.0950 ca         1 BOS      -0.080000
     16 C10          4.9840    -8.9150    -3.5220 ca         1 BOS      -0.088000
     17 C11          4.5610   -10.0950    -2.9280 ca         1 BOS      -0.054000
     18 C12          3.6410   -10.0700    -1.9020 ca         1 BOS      -0.093000
     19 C13          3.1330    -8.8570    -1.4520 ca         1 BOS       0.118900
     20 S2           1.9540    -8.8200    -0.1410 sh         1 BOS      -0.302700
     21 HN11        -0.3340    -0.7500     0.5730 hn         1 BOS       0.312800
     22 HN12        -0.3340    -0.1210    -0.9360 hn         1 BOS       0.312800
     23 H2           2.2270    -0.8610    -2.6710 ha         1 BOS       0.124500
     24 H3           2.9640    -3.0300    -3.5790 ha         1 BOS       0.149500
     25 H5           2.9660    -4.6740     0.3740 ha         1 BOS       0.149500
     26 H6           2.2320    -2.5000     1.2730 ha         1 BOS       0.124500
     27 HN2          4.0320    -5.2530    -2.9700 hn         1 BOS       0.191500
     28 H9           4.8220    -6.7860    -3.5630 ha         1 BOS       0.099000
     29 H10          5.7080    -8.9460    -4.3270 ha         1 BOS       0.115000
     30 H11          4.9560   -11.0430    -3.2730 ha         1 BOS       0.116000
     31 H12          3.3180   -10.9950    -1.4420 ha         1 BOS       0.125000
     32 HS2          0.9420    -9.6270    -0.4340 hs         1 BOS       0.189800
     33 H13         -0.3340     0.8700     0.3650 hn         1 BOS       0.312800
@<TRIPOS>BOND
     1     1     2 1   
     2     1    21 1   
     3     1    22 1   
     4     1    33 1   
     5     2     3 2   
     6     2     4 2   
     7     2     5 1   
     8     5     6 ar  
     9     5    10 ar  
    10     6     7 ar  
    11     6    23 1   
    12     7     8 ar  
    13     7    24 1   
    14     8     9 ar  
    15     8    11 1   
    16     9    10 ar  
    17     9    25 1   
    18    10    26 1   
    19    11    12 1   
    20    11    27 1   
    21    12    13 2   
    22    12    14 1   
    23    14    15 ar  
    24    14    19 ar  
    25    15    16 ar  
    26    15    28 1   
    27    16    17 ar  
    28    16    29 1   
    29    17    18 ar  
    30    17    30 1   
    31    18    19 ar  
    32    18    31 1   
    33    19    20 1   
    34    20    32 1   
@<TRIPOS>SUBSTRUCTURE
     1 BOS         1 TEMP              0 ****  ****    0 ROOT
