@<TRIPOS>MOLECULE
molecule
   14    15     1     0     0
SMALL
bcc


@<TRIPOS>ATOM
      1 C8           0.0000     0.0000     0.0000 cc         1 BOT       0.449100
      2 N1           1.3030     0.0000     0.0000 nd         1 BOT      -0.611100
      3 C9           2.0270     0.0000     1.1370 ca         1 BOT       0.110400
      4 S1          -0.4000     0.0000     1.6890 ss         1 BOT      -0.181100
      5 C10          1.2570     0.0000     2.3230 ca         1 BOT      -0.021100
      6 C11          1.8280    -0.0000     3.5720 ca         1 BOT      -0.084000
      7 C12          3.2050    -0.0000     3.6880 ca         1 BOT      -0.111000
      8 C13          3.9860    -0.0000     2.5420 ca         1 BOT      -0.133000
      9 C14          3.4290    -0.0000     1.3000 ca         1 BOT      -0.065000
     10 H8          -0.6370     0.3460    -0.8050 h5         1 BOT       0.086800
     11 H11          1.2040    -0.0000     4.4580 ha         1 BOT       0.140000
     12 H12          3.6710    -0.0000     4.6660 ha         1 BOT       0.139000
     13 H13          5.0650    -0.0000     2.6370 ha         1 BOT       0.136000
     14 H14          4.0700    -0.0000     0.4260 ha         1 BOT       0.145000
@<TRIPOS>BOND
     1     1     2 2
     2     1     4 1
     3     1    10 1
     4     2     3 1
     5     3     5 ar
     6     3     9 ar
     7     4     5 1
     8     5     6 ar
     9     6     7 ar
    10     6    11 1
    11     7     8 ar
    12     7    12 1
    13     8     9 ar
    14     8    13 1
    15     9    14 1
@<TRIPOS>SUBSTRUCTURE
     1 BOT         1 TEMP              0 ****  ****    0 ROOT
