@<TRIPOS>MOLECULE
BOT
   14    15     1     0     0
SMALL
bcc


@<TRIPOS>ATOM
      1 C8          0.0710   -0.0900    0.1240 cc        1 BOT      0.354100
      2 N1          1.3630   -0.0730   -0.1160 nd        1 BOT     -0.517100
      3 C9          2.0630   -0.0410    1.1040 ca        1 BOT      0.076400
      4 S1         -0.4050   -0.0690    1.7850 ss        1 BOT     -0.042100
      5 C10         1.2180   -0.0350    2.2670 ca        1 BOT     -0.085100
      6 C11         1.7840   -0.0040    3.5420 ca        1 BOT     -0.090000
      7 C12         3.1650    0.0210    3.6700 ca        1 BOT     -0.119000
      8 C13         3.9950    0.0150    2.5360 ca        1 BOT     -0.132000
      9 C14         3.4620   -0.0160    1.2580 ca        1 BOT     -0.072000
     10 H8         -0.6670   -0.1160   -0.6840 h5        1 BOT      0.061800
     11 H11         1.1400    0.0010    4.4340 ha        1 BOT      0.140000
     12 H12         3.6210    0.0450    4.6710 ha        1 BOT      0.136000
     13 H13         5.0870    0.0350    2.6710 ha        1 BOT      0.137000
     14 H14         4.1120   -0.0200    0.3700 ha        1 BOT      0.152000
@<TRIPOS>BOND
     1    1    2 2   
     2    1    4 1   
     3    1   10 1   
     4    2    3 1   
     5    3    5 ar  
     6    3    9 ar  
     7    4    5 1   
     8    5    6 ar  
     9    6    7 ar  
    10    6   11 1   
    11    7    8 ar  
    12    7   12 1   
    13    8    9 ar  
    14    8   13 1   
    15    9   14 1   
@<TRIPOS>SUBSTRUCTURE
     1 BOT         1 TEMP              0 ****  ****    0 ROOT
