@<TRIPOS>MOLECULE
BOU
   51    53     1     0     0
SMALL
bcc


@<TRIPOS>ATOM
      1 S1           0.0000     0.0000     0.0000 ss         1 BOU      -0.470200
      2 C1           1.8370     0.0000     0.0000 c3         1 BOU       0.115100
      3 C2           2.1960     0.0000     1.4980 c3         1 BOU      -0.002500
      4 N1           1.0180     0.0930     2.3660 n7         1 BOU      -0.592200
      5 C3          -0.1570    -0.5760     1.7410 c3         1 BOU       0.254600
      6 C4          -1.4660    -0.0900     2.3670 c3         1 BOU      -0.081300
      7 C5          -1.5960     1.3980     2.1680 c          1 BOU       0.634900
      8 O1          -2.5350     1.8450     1.5540 o          1 BOU      -0.504100
      9 C6           2.3760    -1.2570    -0.6860 c3         1 BOU      -0.000100
     10 C7           2.3760     1.2580    -0.6840 c3         1 BOU      -0.000100
     11 C8           2.9350    -1.2720     1.8210 c          1 BOU       0.963600
     12 O2           4.2430    -1.3810     1.5340 o          1 BOU      -0.891800
     13 O3           2.3530    -2.1950     2.3390 o          1 BOU      -0.891800
     14 N2          -2.5950    -0.7690     1.7270 ns         1 BOU      -0.178900
     15 C9          -3.7590    -0.9130     2.3920 c          1 BOU       0.617700
     16 O4          -3.8720    -0.4780     3.5220 o          1 BOU      -0.645100
     17 C10         -4.8980    -1.5980     1.7470 ca         1 BOU      -0.049600
     18 C11         -4.7730    -2.0970     0.4520 ca         1 BOU      -0.090000
     19 C12         -5.8410    -2.7360    -0.1470 ca         1 BOU      -0.136000
     20 C13         -7.0390    -2.8850     0.5310 ca         1 BOU      -0.114000
     21 C14         -7.1800    -2.3960     1.8150 ca         1 BOU      -0.125000
     22 C15         -6.1140    -1.7540     2.4380 cp         1 BOU       0.093000
     23 C16         -6.2590    -1.2340     3.8160 cp         1 BOU      -0.014000
     24 C17         -6.4520    -2.1130     4.8790 ca         1 BOU      -0.126000
     25 C18         -6.5870    -1.6230     6.1630 ca         1 BOU      -0.148000
     26 C19         -6.5330    -0.2610     6.4050 ca         1 BOU      -0.143000
     27 C20         -6.3410     0.6250     5.3640 ca         1 BOU      -0.072000
     28 C21         -6.1960     0.1500     4.0610 ca         1 BOU      -0.032600
     29 C22         -5.9850     1.0930     2.9460 c          1 BOU       0.980200
     30 O5          -5.9260     2.4180     3.1860 o          1 BOU      -0.884300
     31 O6          -5.8640     0.6740     1.8120 o          1 BOU      -0.884300
     32 H3           2.8430     0.8460     1.7000 h1         1 BOU       0.050700
     33 HN4          1.2180    -0.3380     3.2470 hn         1 BOU       0.283800
     34 H5          -0.0650    -1.6540     1.8010 h2         1 BOU       0.069700
     35 H6          -1.4640    -0.3140     3.4270 h1         1 BOU       0.067700
     36 HO8         -0.8730     2.0690     2.6160 h4         1 BOU      -0.035800
     37 H9           2.0330    -1.2820    -1.7140 hc         1 BOU       0.015533
     38 H9A          2.0160    -2.1360    -0.1650 hc         1 BOU       0.015533
     39 H9B          3.4590    -1.2440    -0.6670 hc         1 BOU       0.015533
     40 H10          2.1250     2.1280    -0.0890 hc         1 BOU       0.015533
     41 H10A         3.4520     1.1840    -0.7790 hc         1 BOU       0.015533
     42 H10B         1.9310     1.3530    -1.6670 hc         1 BOU       0.015533
     43 HN14        -2.4910    -1.1580     0.8110 hn         1 BOU       0.183500
     44 H18         -3.8290    -2.0120    -0.0730 ha         1 BOU       0.100000
     45 H19         -5.7400    -3.1240    -1.1540 ha         1 BOU       0.081000
     46 H20         -7.8700    -3.3870     0.0520 ha         1 BOU       0.076000
     47 H21         -8.1240    -2.5070     2.3360 ha         1 BOU       0.093000
     48 H24         -6.4960    -3.1800     4.6990 ha         1 BOU       0.083000
     49 H25         -6.7380    -2.3090     6.9880 ha         1 BOU       0.072000
     50 H26         -6.6430     0.1120     7.4160 ha         1 BOU       0.074000
     51 H27         -6.2970     1.6900     5.5610 ha         1 BOU       0.124000
@<TRIPOS>BOND
     1     1     2 1   
     2     1     5 1   
     3     2     3 1   
     4     2     9 1   
     5     2    10 1   
     6     3     4 1   
     7     3    11 1   
     8     3    32 1   
     9     4     5 1   
    10     4    33 1   
    11     5     6 1   
    12     5    34 1   
    13     6     7 1   
    14     6    14 1   
    15     6    35 1   
    16     7     8 2   
    17     7    36 1   
    18     9    37 1   
    19     9    38 1   
    20     9    39 1   
    21    10    40 1   
    22    10    41 1   
    23    10    42 1   
    24    11    12 1   
    25    11    13 1   
    26    14    15 1   
    27    14    43 1   
    28    15    16 2   
    29    15    17 1   
    30    17    18 ar  
    31    17    22 ar  
    32    18    19 ar  
    33    18    44 1   
    34    19    20 ar  
    35    19    45 1   
    36    20    21 ar  
    37    20    46 1   
    38    21    22 ar  
    39    21    47 1   
    40    22    23 1   
    41    23    24 ar  
    42    23    28 ar  
    43    24    25 ar  
    44    24    48 1   
    45    25    26 ar  
    46    25    49 1   
    47    26    27 ar  
    48    26    50 1   
    49    27    28 ar  
    50    27    51 1   
    51    28    29 1   
    52    29    30 1   
    53    29    31 1   
@<TRIPOS>SUBSTRUCTURE
     1 BOU         1 TEMP              0 ****  ****    0 ROOT
