@<TRIPOS>MOLECULE
molecule
   33    32     1     0     0
SMALL
bcc


@<TRIPOS>ATOM
      1 C1           0.0000     0.0000     0.0000 c3         1 BOW       0.130400
      2 N1          -2.5130     1.5290    -1.0990 nz         1 BOW      -0.832500
      3 O1          -2.4780    -0.8490    -0.4370 o          1 BOW      -0.525800
      4 S1          -1.9930     0.0000    -1.4680 s6         1 BOW       1.494400
      5 C2           1.5300     0.0000     0.0000 c3         1 BOW      -0.075400
      6 O2          -2.2870    -0.2010    -2.8440 o          1 BOW      -0.525800
      7 C3           2.0400     0.0000     1.4430 c3         1 BOW      -0.082400
      8 O3          -0.4760     0.0010    -1.3480 os         1 BOW      -0.510500
      9 C4           3.5700    -0.0010     1.4430 c3         1 BOW      -0.078400
     10 C5           4.0800    -0.0010     2.8860 c3         1 BOW      -0.081400
     11 C6           5.6100    -0.0010     2.8860 c3         1 BOW      -0.081400
     12 C7           6.1200    -0.0010     4.3280 c3         1 BOW      -0.083400
     13 C8           7.6500    -0.0020     4.3280 c3         1 BOW      -0.092100
     14 H1          -0.3610     0.8840     0.5110 h1         1 BOW       0.063700
     15 H1A         -0.3610    -0.8850     0.5100 h1         1 BOW       0.063700
     16 HN1         -3.4120     1.6840    -1.5100 hn         1 BOW       0.497133
     17 HN1A        -2.5800     1.6280    -0.1050 hn         1 BOW       0.497133
     18 H2           1.8910    -0.8850    -0.5110 hc         1 BOW       0.076200
     19 H2A          1.8910     0.8850    -0.5110 hc         1 BOW       0.076200
     20 H3           1.6780    -0.8840     1.9540 hc         1 BOW       0.048200
     21 H3A          1.6790     0.8850     1.9530 hc         1 BOW       0.048200
     22 H4           3.9310    -0.8860     0.9320 hc         1 BOW       0.050700
     23 H4A          3.9320     0.8830     0.9320 hc         1 BOW       0.050700
     24 H5           3.7190    -0.8860     3.3960 hc         1 BOW       0.044200
     25 H5A          3.7190     0.8840     3.3960 hc         1 BOW       0.044200
     26 H6           5.9710    -0.8860     2.3750 hc         1 BOW       0.045200
     27 H6A          5.9710     0.8840     2.3750 hc         1 BOW       0.045200
     28 H7           5.7590     0.8840     4.8390 hc         1 BOW       0.041700
     29 H7A          5.7580    -0.8850     4.8390 hc         1 BOW       0.041700
     30 H8           8.0120     0.8850     3.8230 hc         1 BOW       0.037367
     31 H8A          8.0110    -0.0080     5.3500 hc         1 BOW       0.037367
     32 H8B          8.0110    -0.8840     3.8130 hc         1 BOW       0.037367
     33 H13         -1.8630     2.1990    -1.4590 hn         1 BOW       0.497133
@<TRIPOS>BOND
     1     1     5 1
     2     1     8 1
     3     2     4 1
     4     3     4 2
     5     4     6 2
     6     4     8 1
     7     5     7 1
     8     7     9 1
     9     9    10 1
    10    10    11 1
    11    11    12 1
    12    12    13 1
    13     1    14 1
    14     1    15 1
    15     2    16 1
    16     2    17 1
    17     5    18 1
    18     5    19 1
    19     7    20 1
    20     7    21 1
    21     9    22 1
    22     9    23 1
    23    10    24 1
    24    10    25 1
    25    11    26 1
    26    11    27 1
    27    12    28 1
    28    12    29 1
    29    13    30 1
    30    13    31 1
    31    13    32 1
    32    33     2 1
@<TRIPOS>SUBSTRUCTURE
     1 BOW         1 TEMP              0 ****  ****    0 ROOT
