@<TRIPOS>MOLECULE
BOX
   14    14     1     0     0
SMALL
bcc


@<TRIPOS>ATOM
      1 C1         -0.0140    0.0000   -0.0010 ca        1 BOX     -0.123600
      2 C2          1.3850   -0.0130    0.0010 ca        1 BOX     -0.109000
      3 C3          2.0900   -0.0130    1.2040 ca        1 BOX     -0.166000
      4 C4          1.4020   -0.0000    2.4170 ca        1 BOX     -0.162000
      5 C5          0.0070    0.0130    2.4240 ca        1 BOX     -0.166000
      6 C6         -0.6970    0.0130    1.2200 ca        1 BOX     -0.109000
      7 C1'        -0.7820    0.0000   -1.3130 c         1 BOX      0.906200
      8 O1'        -0.1190   -0.0110   -2.3890 o         1 BOX     -0.834300
      9 O2'        -2.0450    0.0120   -1.2610 o         1 BOX     -0.834300
     10 H2          1.9070   -0.0230   -0.9690 ha        1 BOX      0.148000
     11 H3          3.1890   -0.0240    1.1980 ha        1 BOX      0.101000
     12 H4          1.9570   -0.0000    3.3650 ha        1 BOX      0.097000
     13 H5         -0.5350    0.0240    3.3790 ha        1 BOX      0.101000
     14 H6         -1.7980    0.0240    1.2010 ha        1 BOX      0.148000
@<TRIPOS>BOND
     1    1    2 ar  
     2    1    6 ar  
     3    1    7 1   
     4    2    3 ar  
     5    2   10 1   
     6    3    4 ar  
     7    3   11 1   
     8    4    5 ar  
     9    4   12 1   
    10    5    6 ar  
    11    5   13 1   
    12    6   14 1   
    13    7    8 1   
    14    7    9 1   
@<TRIPOS>SUBSTRUCTURE
     1 BOX         1 TEMP              0 ****  ****    0 ROOT
