@<TRIPOS>MOLECULE
molecule
   14    14     1     0     0
SMALL
bcc


@<TRIPOS>ATOM
      1 C1           0.0000     0.0000     0.0000 ca         1 BOX      -0.104600
      2 C2           1.3960     0.0000     0.0000 ca         1 BOX      -0.101000
      3 C3           2.0820     0.0000     1.1970 ca         1 BOX      -0.165000
      4 C4           1.3900     0.0000     2.3940 ca         1 BOX      -0.158000
      5 C5           0.0050    -0.0010     2.4010 ca         1 BOX      -0.165000
      6 C6          -0.6930     0.0040     1.2110 ca         1 BOX      -0.101000
      7 C1'         -0.7410     0.0000    -1.2780 c          1 BOX       0.883200
      8 O1'         -0.1360     0.0000    -2.3310 o          1 BOX      -0.840300
      9 O2'         -2.0870    -0.0010    -1.2760 o          1 BOX      -0.840300
     10 H2           1.9390    -0.0020    -0.9370 ha         1 BOX       0.146500
     11 H3           3.1650     0.0000     1.2000 ha         1 BOX       0.100500
     12 H4           1.9330    -0.0020     3.3310 ha         1 BOX       0.096000
     13 H5          -0.5310     0.0010     3.3430 ha         1 BOX       0.100500
     14 H6          -1.7760     0.0040     1.2180 ha         1 BOX       0.146500
@<TRIPOS>BOND
     1     1     2 ar
     2     1     6 ar
     3     1     7 1
     4     2     3 ar
     5     2    10 1
     6     3     4 ar
     7     3    11 1
     8     4     5 ar
     9     4    12 1
    10     5     6 ar
    11     5    13 1
    12     6    14 1
    13     7     8 1
    14     7     9 1
@<TRIPOS>SUBSTRUCTURE
     1 BOX         1 TEMP              0 ****  ****    0 ROOT
