@<TRIPOS>MOLECULE
molecule
   22    22     1     0     0
SMALL
bcc


@<TRIPOS>ATOM
      1 CAA          0.0000     0.0000     0.0000 c3         1 BOY      -0.028800
      2 CAF          2.5030     0.0000     0.0000 ca         1 BOY      -0.147000
      3 CAG          1.3580    -0.0000     2.1030 ca         1 BOY      -0.147000
      4 CAH          3.7180     0.0000     0.6610 ca         1 BOY      -0.104000
      5 CAI          2.5720    -0.0110     2.7640 ca         1 BOY      -0.104000
      6 CAJ          1.3240     0.0000     0.7210 ca         1 BOY      -0.150300
      7 CAK          3.7520    -0.0060     2.0430 ca         1 BOY       0.003700
      8 CAL          5.0750    -0.0070     2.7640 c3         1 BOY       0.053200
      9 OAC          4.9370    -0.6870     4.0130 oh         1 BOY      -0.589800
     10 PAM          5.6060     1.7110     3.0620 p5         1 BOY       1.015700
     11 HAA3         0.1560    -0.2560    -1.0410 hc         1 BOY       0.013700
     12 HAA2        -0.4480     0.9840     0.0670 hc         1 BOY       0.013700
     13 HAA1        -0.6590    -0.7290     0.4560 hc         1 BOY       0.013700
     14 HAF1         2.4760     0.0050    -1.0830 ha         1 BOY       0.090000
     15 HAG1         0.4340    -0.0040     2.6680 ha         1 BOY       0.090000
     16 HAH1         4.6420     0.0020     0.0960 ha         1 BOY       0.143000
     17 HAI1         2.5990    -0.0140     3.8470 ha         1 BOY       0.143000
     18 HAL1         5.8160    -0.5140     2.1570 h1         1 BOY       0.015700
     19 HAC1         5.5760    -1.3780     4.0680 ho         1 BOY       0.356000
     20 OAB          4.5050     2.4650     3.9640 o          1 BOY      -0.893833
     21 OAD          7.0210     1.7100     3.8320 o          1 BOY      -0.893833
     22 OAE          5.7490     2.4150     1.7680 o          1 BOY      -0.893833
@<TRIPOS>BOND
     1     1     6 1
     2     6     3 ar
     3     6     2 ar
     4     3     5 ar
     5     2     4 ar
     6     5     7 ar
     7     4     7 ar
     8     7     8 1
     9    22    10 1
    10     9     8 1
    11     8    10 1
    12    10    21 1
    13    10    20 1
    14     1    11 1
    15     1    12 1
    16     1    13 1
    17     2    14 1
    18     3    15 1
    19     4    16 1
    20     5    17 1
    21     8    18 1
    22     9    19 1
@<TRIPOS>SUBSTRUCTURE
     1 BOY         1 TEMP              0 ****  ****    0 ROOT
