@<TRIPOS>MOLECULE
molecule
   39    43     1     0     0
SMALL
bcc


@<TRIPOS>ATOM
      1 C10          0.0000     0.0000     0.0000 c3         1 BP       -0.055100
      2 C9           1.5260     0.0000     0.0000 c3         1 BP        0.133100
      3 C8           2.0090     0.0000     1.4550 c3         1 BP        0.129100
      4 C7           1.6860     1.3600     2.0670 c3         1 BP        0.195400
      5 C6A          0.2370     1.7150     1.8450 ca         1 BP       -0.072300
      6 C6          -0.2950     2.7150     2.6520 ca         1 BP       -0.085000
      7 C5A         -1.6200     3.1170     2.5110 ca         1 BP       -0.038000
      8 C5          -2.1880     4.1330     3.3190 ca         1 BP       -0.108000
      9 C4          -3.4800     4.5040     3.1620 ca         1 BP       -0.119000
     10 C3A         -4.3000     3.8890     2.1870 ca         1 BP       -0.029000
     11 C3          -5.6360     4.2550     2.0090 ca         1 BP       -0.113000
     12 C2          -6.4040     3.6300     1.0460 ca         1 BP       -0.127000
     13 C1          -5.8840     2.6370     0.2380 ca         1 BP       -0.114000
     14 C2A         -4.5530     2.2410     0.3840 ca         1 BP       -0.031000
     15 C2B         -3.7580     2.8740     1.3670 ca         1 BP       -0.016000
     16 C2C         -2.4170     2.4880     1.5290 ca         1 BP       -0.009000
     17 C12         -3.9830     1.2270    -0.4230 ca         1 BP       -0.114000
     18 C11         -2.6910     0.8570    -0.2640 ca         1 BP       -0.117000
     19 C1B         -1.8730     1.4750     0.7130 ca         1 BP       -0.035000
     20 C1A         -0.5340     1.0950     0.8880 ca         1 BP       -0.042300
     21 O9           2.0070     1.1700    -0.6660 oh         1 BP       -0.591800
     22 O8           3.4200    -0.2250     1.4950 oh         1 BP       -0.600800
     23 O7           1.9510     1.3190     3.4710 oh         1 BP       -0.605800
     24 H101        -0.3550     0.1580    -1.0110 hc         1 BP        0.061200
     25 H102        -0.3550    -0.9570     0.3630 hc         1 BP        0.061200
     26 H9           1.8890    -0.8880    -0.5030 h1         1 BP        0.039700
     27 H8           1.4950    -0.7770     2.0070 h1         1 BP        0.056700
     28 H7           2.3100     2.1140     1.6040 h1         1 BP        0.074700
     29 H6           0.3300     3.1870     3.4000 ha         1 BP        0.140000
     30 H5          -1.5800     4.6190     4.0730 ha         1 BP        0.132000
     31 H4          -3.8920     5.2830     3.7920 ha         1 BP        0.131000
     32 H3          -6.0710     5.0300     2.6280 ha         1 BP        0.132000
     33 H2          -7.4390     3.9260     0.9210 ha         1 BP        0.129000
     34 H1          -6.5100     2.1650    -0.5090 ha         1 BP        0.132000
     35 H12         -4.5890     0.7410    -1.1780 ha         1 BP        0.131000
     36 H11         -2.2770     0.0780    -0.8930 ha         1 BP        0.130000
     37 HO9          2.3820     0.9270    -1.4960 ho         1 BP        0.404000
     38 HO8          3.5920    -1.0770     1.8610 ho         1 BP        0.404000
     39 HO7          2.7120     1.8410     3.6620 ho         1 BP        0.408000
@<TRIPOS>BOND
     1     1     2 1
     2     1    20 1
     3     1    24 1
     4     1    25 1
     5     2     3 1
     6     2    21 1
     7     2    26 1
     8     3     4 1
     9     3    22 1
    10     3    27 1
    11     4     5 1
    12     4    23 1
    13     4    28 1
    14     5     6 ar
    15     5    20 ar
    16     6     7 ar
    17     6    29 1
    18     7     8 ar
    19     7    16 ar
    20     8     9 ar
    21     8    30 1
    22     9    10 ar
    23     9    31 1
    24    10    11 ar
    25    10    15 ar
    26    11    12 ar
    27    11    32 1
    28    12    13 ar
    29    12    33 1
    30    13    14 ar
    31    13    34 1
    32    14    15 ar
    33    14    17 ar
    34    15    16 ar
    35    16    19 ar
    36    17    18 ar
    37    17    35 1
    38    18    19 ar
    39    18    36 1
    40    19    20 ar
    41    21    37 1
    42    22    38 1
    43    23    39 1
@<TRIPOS>SUBSTRUCTURE
     1 BP          1 TEMP              0 ****  ****    0 ROOT
