@<TRIPOS>MOLECULE
BP
   39    43     1     0     0
SMALL
bcc


@<TRIPOS>ATOM
      1 C10         0.0710    0.0720    0.0000 c3        1 BP      -0.065100
      2 C9          1.5500   -0.2450    0.1880 c3        1 BP       0.113100
      3 C8          2.0000   -0.0160    1.6350 c3        1 BP       0.116100
      4 C7          1.7170    1.4410    2.0350 c3        1 BP       0.161400
      5 C6A         0.2650    1.7720    1.8660 ca        1 BP      -0.071300
      6 C6         -0.3000    2.7510    2.6850 ca        1 BP      -0.081000
      7 C5A        -1.6370    3.1270    2.5310 ca        1 BP      -0.039000
      8 C5         -2.2400    4.1360    3.3630 ca        1 BP      -0.109000
      9 C4         -3.5370    4.4970    3.2020 ca        1 BP      -0.119000
     10 C3A        -4.3610    3.8840    2.1940 ca        1 BP      -0.031000
     11 C3         -5.7020    4.2470    2.0150 ca        1 BP      -0.114000
     12 C2         -6.4740    3.6320    1.0310 ca        1 BP      -0.126000
     13 C1         -5.9270    2.6490    0.2110 ca        1 BP      -0.114000
     14 C2A        -4.5890    2.2640    0.3640 ca        1 BP      -0.035000
     15 C2B        -3.7930    2.8840    1.3610 ca        1 BP      -0.015000
     16 C2C        -2.4210    2.5020    1.5280 ca        1 BP      -0.010000
     17 C12        -3.9870    1.2510   -0.4590 ca        1 BP      -0.111000
     18 C11        -2.6890    0.8900   -0.2990 ca        1 BP      -0.122000
     19 C1B        -1.8480    1.5020    0.6980 ca        1 BP      -0.034000
     20 C1A        -0.4950    1.1390    0.8720 ca        1 BP      -0.055300
     21 O9          2.3930    0.5730   -0.6170 oh        1 BP      -0.611800
     22 O8          3.3730   -0.3060    1.8080 oh        1 BP      -0.600800
     23 O7          2.0950    1.6700    3.3870 oh        1 BP      -0.600800
     24 H101       -0.0920    0.3580   -1.0760 hc        1 BP       0.061200
     25 H102       -0.5090   -0.8750    0.1890 hc        1 BP       0.061200
     26 H9          1.7350   -1.3230   -0.0890 h1        1 BP       0.050700
     27 H8          1.4660   -0.7280    2.3250 h1        1 BP       0.096700
     28 H7          2.3290    2.1250    1.3730 h1        1 BP       0.064700
     29 H6          0.3200    3.2210    3.4670 ha        1 BP       0.158000
     30 H5         -1.6090    4.6020    4.1350 ha        1 BP       0.137000
     31 H4         -3.9960    5.2690    3.8390 ha        1 BP       0.134000
     32 H3         -6.1450    5.0210    2.6590 ha        1 BP       0.134000
     33 H2         -7.5270    3.9270    0.9020 ha        1 BP       0.133000
     34 H1         -6.5450    2.1690   -0.5620 ha        1 BP       0.133000
     35 H12        -4.6170    0.7750   -1.2260 ha        1 BP       0.133000
     36 H11        -2.2560    0.1080   -0.9410 ha        1 BP       0.128000
     37 HO9         2.0900    0.4860   -1.5280 ho        1 BP       0.412000
     38 HO8         3.8590    0.1780    1.1260 ho        1 BP       0.420000
     39 HO7         2.9240    1.1900    3.5250 ho        1 BP       0.420000
@<TRIPOS>BOND
     1    1    2 1   
     2    1   20 1   
     3    1   24 1   
     4    1   25 1   
     5    2    3 1   
     6    2   21 1   
     7    2   26 1   
     8    3    4 1   
     9    3   22 1   
    10    3   27 1   
    11    4    5 1   
    12    4   23 1   
    13    4   28 1   
    14    5    6 ar  
    15    5   20 ar  
    16    6    7 ar  
    17    6   29 1   
    18    7    8 ar  
    19    7   16 ar  
    20    8    9 ar  
    21    8   30 1   
    22    9   10 ar  
    23    9   31 1   
    24   10   11 ar  
    25   10   15 ar  
    26   11   12 ar  
    27   11   32 1   
    28   12   13 ar  
    29   12   33 1   
    30   13   14 ar  
    31   13   34 1   
    32   14   15 ar  
    33   14   17 ar  
    34   15   16 ar  
    35   16   19 ar  
    36   17   18 ar  
    37   17   35 1   
    38   18   19 ar  
    39   18   36 1   
    40   19   20 ar  
    41   21   37 1   
    42   22   38 1   
    43   23   39 1   
@<TRIPOS>SUBSTRUCTURE
     1 BP          1 TEMP              0 ****  ****    0 ROOT
