@<TRIPOS>MOLECULE
BP0
   29    30     1     0     0
SMALL
bcc


@<TRIPOS>ATOM
      1 S18          0.0000     0.0000     0.0000 ss         1 BP0      -0.404200
      2 N26          4.5920    -1.0470    -1.4410 nc         1 BP0      -0.240000
      3 N28          5.8410    -0.8690    -1.4420 nc         1 BP0      -0.365000
      4 C30          2.3250    -0.0010    -1.4430 c3         1 BP0      -0.000700
      5 C31          6.2760     0.3580    -1.4420 cd         1 BP0       0.540800
      6 C32          1.8140     0.0000     0.0000 c3         1 BP0       0.082700
      7 C33          3.8310    -0.0010    -1.4420 cd         1 BP0       0.387200
      8 S35          4.8700     1.4250    -1.4430 ss         1 BP0      -0.447300
      9 H1           7.8360     1.7300    -1.4430 hn         1 BP0       0.277300
     10 H2           8.3330     0.0690    -1.4410 hn         1 BP0       0.277300
     11 H3           1.9640     0.8830    -1.9540 hc         1 BP0       0.043200
     12 H4           1.9640    -0.8860    -1.9530 hc         1 BP0       0.043200
     13 H5           2.1760     0.8850     0.5100 h1         1 BP0       0.041450
     14 C1          -0.4090     0.0000     1.7670 c3         1 BP0       0.082700
     15 C2          -1.9290     0.0010     1.9390 c3         1 BP0      -0.000700
     16 C3          -2.2670     0.0010     3.4080 cc         1 BP0       0.387200
     17 N1          -2.4400     1.0470     4.1490 nd         1 BP0      -0.240000
     18 N2          -2.7210     0.8700     5.3650 nd         1 BP0      -0.365000
     19 C6          -2.8190    -0.3570     5.7900 cc         1 BP0       0.540800
     20 S1          -2.5090    -1.4250     4.4180 ss         1 BP0      -0.447300
     21 N3          -3.1180    -0.7540     7.0850 nv         1 BP0      -0.479500
     22 H6           2.1760    -0.8840     0.5110 h1         1 BP0       0.041450
     23 H7           0.0080     0.8840     2.2340 h1         1 BP0       0.041450
     24 H8           0.0070    -0.8850     2.2340 h1         1 BP0       0.041450
     25 H9          -2.3460    -0.8830     1.4730 hc         1 BP0       0.043200
     26 H10         -2.3450     0.8860     1.4720 hc         1 BP0       0.043200
     27 H11         -3.9280    -1.3150     7.2610 hn         1 BP0       0.277300
     28 H12         -2.5160    -0.4930     7.8400 hn         1 BP0       0.277300
     29 N27          7.6050     0.7560    -1.4420 nv         1 BP0      -0.479500
@<TRIPOS>BOND
     1     1     6 1   
     2     1    14 1   
     3     2     3 1   
     4     2     7 2   
     5     3     5 2   
     6     4     6 1   
     7     4     7 1   
     8     4    11 1   
     9     4    12 1   
    10     5     8 1   
    11     5    29 1   
    12     6    13 1   
    13     6    22 1   
    14     7     8 1   
    15     9    29 1   
    16    10    29 1   
    17    14    15 1   
    18    14    23 1   
    19    14    24 1   
    20    15    16 1   
    21    15    25 1   
    22    15    26 1   
    23    16    17 2   
    24    16    20 1   
    25    17    18 1   
    26    18    19 2   
    27    19    20 1   
    28    19    21 1   
    29    21    27 1   
    30    21    28 1   
@<TRIPOS>SUBSTRUCTURE
     1 BP0         1 TEMP              0 ****  ****    0 ROOT
