@<TRIPOS>MOLECULE
molecule
   29    30     1     0     0
SMALL
bcc


@<TRIPOS>ATOM
      1 S18          0.0000     0.0000     0.0000 ss         1 BP0      -0.354200
      2 N26          4.5920    -1.0470    -1.4410 nc         1 BP0      -0.299000
      3 N28          5.8410    -0.8690    -1.4420 nd         1 BP0      -0.391500
      4 C30          2.3250    -0.0010    -1.4430 c3         1 BP0      -0.076700
      5 C31          6.2760     0.3580    -1.4420 cc         1 BP0       0.700300
      6 C32          1.8140     0.0000     0.0000 c3         1 BP0       0.018700
      7 C33          3.8310    -0.0010    -1.4420 cd         1 BP0       0.405700
      8 S35          4.8700     1.4250    -1.4430 ss         1 BP0      -0.383300
      9 H1           7.8360     1.7300    -1.4430 hn         1 BP0       0.452300
     10 H2           8.3330     0.0690    -1.4410 hn         1 BP0       0.452300
     11 H3           1.9640     0.8830    -1.9540 hc         1 BP0       0.078450
     12 H4           1.9640    -0.8860    -1.9530 hc         1 BP0       0.078450
     13 H5           2.1760     0.8850     0.5100 h1         1 BP0       0.067450
     14 C1          -0.4090     0.0000     1.7670 c3         1 BP0       0.018700
     15 C2          -1.9290     0.0010     1.9390 c3         1 BP0      -0.076700
     16 C3          -2.2670     0.0010     3.4080 cc         1 BP0       0.405700
     17 N1          -2.4400     1.0470     4.1490 nd         1 BP0      -0.299000
     18 N2          -2.7210     0.8700     5.3650 nd         1 BP0      -0.391500
     19 C6          -2.8190    -0.3570     5.7900 cc         1 BP0       0.700300
     20 S1          -2.5090    -1.4250     4.4180 ss         1 BP0      -0.383300
     21 N3          -3.1180    -0.7540     7.0850 nv         1 BP0      -0.993500
     22 H6           2.1760    -0.8840     0.5110 h1         1 BP0       0.067450
     23 H7           0.0080     0.8840     2.2340 h1         1 BP0       0.067450
     24 H8           0.0070    -0.8850     2.2340 h1         1 BP0       0.067450
     25 H9          -2.3460    -0.8830     1.4730 hc         1 BP0       0.078450
     26 H10         -2.3450     0.8860     1.4720 hc         1 BP0       0.078450
     27 H11         -3.9280    -1.3150     7.2610 hn         1 BP0       0.452300
     28 H12         -2.5160    -0.4930     7.8400 hn         1 BP0       0.452300
     29 N27          7.6050     0.7560    -1.4420 nv         1 BP0      -0.993500
@<TRIPOS>BOND
     1    29     5 1
     2     8     5 1
     3     8     7 1
     4     5     3 2
     5     7     4 1
     6     7     2 2
     7     3     2 1
     8     1     6 1
     9     4     6 1
    10    29     9 1
    11    29    10 1
    12     4    11 1
    13     4    12 1
    14     6    13 1
    15     1    14 1
    16    14    15 1
    17    15    16 1
    18    16    17 2
    19    17    18 1
    20    18    19 2
    21    19    20 1
    22    20    16 1
    23    19    21 1
    24     6    22 1
    25    14    23 1
    26    14    24 1
    27    15    25 1
    28    15    26 1
    29    21    27 1
    30    21    28 1
@<TRIPOS>SUBSTRUCTURE
     1 BP0         1 TEMP              0 ****  ****    0 ROOT
