@<TRIPOS>MOLECULE
molecule
   13    14     1     0     0
SMALL
bcc


@<TRIPOS>ATOM
      1 N9           0.0000     0.0000     0.0000 nc         1 BP1      -0.668700
      2 C4           1.3460     0.0000     0.0000 ca         1 BP1       0.622300
      3 N3           2.2820     0.0000     0.9500 nb         1 BP1      -0.679000
      4 C2           3.5570    -0.0000     0.6280 ca         1 BP1       0.678900
      5 N1           3.9710    -0.0000    -0.6250 nb         1 BP1      -0.707000
      6 C6           3.1100    -0.0000    -1.6330 ca         1 BP1       0.535500
      7 Br           3.7220    -0.0000    -3.4220 br         1 BP1      -0.141200
      8 C5           1.7540     0.0050    -1.3490 ca         1 BP1      -0.337800
      9 N7           0.5950     0.0000    -2.0960 na         1 BP1      -0.246300
     10 C8          -0.4410     0.0000    -1.2270 cd         1 BP1       0.466700
     11 H2           4.2950    -0.0000     1.4220 h5         1 BP1       0.073100
     12 HN7          0.5330     0.0000    -3.0950 hn         1 BP1       0.316700
     13 H8          -1.4870     0.0000    -1.5100 h5         1 BP1       0.085800
@<TRIPOS>BOND
     1     1     2 1
     2     1    10 2
     3     2     3 ar
     4     2     8 ar
     5     3     4 ar
     6     4     5 ar
     7     4    11 1
     8     5     6 ar
     9     6     7 1
    10     6     8 ar
    11     8     9 1
    12     9    10 1
    13     9    12 1
    14    10    13 1
@<TRIPOS>SUBSTRUCTURE
     1 BP1         1 TEMP              0 ****  ****    0 ROOT
