@<TRIPOS>MOLECULE
BP1
   13    14     1     0     0
SMALL
bcc


@<TRIPOS>ATOM
      1 N9         -0.0750    0.0010    0.0770 nc        1 BP1     -0.618700
      2 C4          1.3430    0.0010    0.0350 ca        1 BP1      0.556300
      3 N3          2.2590    0.0010    1.0410 nb        1 BP1     -0.615000
      4 C2          3.5440    0.0000    0.6210 ca        1 BP1      0.616900
      5 N1          4.0340    0.0000   -0.6590 nb        1 BP1     -0.659000
      6 C6          3.1450    0.0000   -1.6650 ca        1 BP1      0.501500
      7 BR          3.7510    0.0000   -3.4450 br        1 BP1     -0.134200
      8 C5          1.7640    0.0000   -1.3810 ca        1 BP1     -0.302800
      9 N7          0.5960    0.0000   -2.1330 na        1 BP1     -0.260300
     10 C8         -0.4640    0.0000   -1.2090 cd        1 BP1      0.446700
     11 H2          4.3160    0.0010    1.4200 h5        1 BP1      0.066100
     12 HN7         0.5350    0.0000   -3.1180 hn        1 BP1      0.322700
     13 H8         -1.5120    0.0000   -1.5400 h5        1 BP1      0.080800
@<TRIPOS>BOND
     1    1    2 1   
     2    1   10 2   
     3    2    3 ar  
     4    2    8 ar  
     5    3    4 ar  
     6    4    5 ar  
     7    4   11 1   
     8    5    6 ar  
     9    6    7 1   
    10    6    8 ar  
    11    8    9 1   
    12    9   10 1   
    13    9   12 1   
    14   10   13 1   
@<TRIPOS>SUBSTRUCTURE
     1 BP1         1 TEMP              0 ****  ****    0 ROOT
