@<TRIPOS>MOLECULE
molecule
   36    37     1     0     0
SMALL
bcc


@<TRIPOS>ATOM
      1 C2           0.0000     0.0000     0.0000 c3         1 BP2      -0.057000
      2 C3           1.5580     0.0000     0.0000 c3         1 BP2       0.222100
      3 C4           1.9000     0.0000     1.5020 c3         1 BP2      -0.128400
      4 C5           0.5040    -0.0560     2.1680 c3         1 BP2      -0.073700
      5 C6          -0.1140     1.3500     2.0010 c3         1 BP2      -0.078400
      6 C7          -0.4760     1.3910     0.5070 c3         1 BP2      -0.068400
      7 C8          -0.3330    -0.9360     1.2020 c3         1 BP2      -0.077000
      8 C9          -1.8270    -1.0330     1.5740 c3         1 BP2      -0.073600
      9 C10          0.1710    -2.3880     1.0760 c3         1 BP2      -0.073600
     10 C11         -0.6010    -0.3680    -1.3430 c3         1 BP2      -0.061100
     11 P1           3.7240     1.3560    -0.6270 p5         1 BP2       1.329800
     12 O1           4.3360     1.4870     0.7380 o          1 BP2      -0.844000
     13 O2           3.9720     2.6280    -1.5960 o          1 BP2      -0.844000
     14 O3           2.1220     1.1320    -0.6420 os         1 BP2      -0.546200
     15 O            4.2720     0.1040    -1.4910 os         1 BP2      -0.681800
     16 P2           5.7740    -0.2500    -1.9940 p5         1 BP2       1.276900
     17 O4           6.2190     0.6360    -3.1270 o          1 BP2      -0.941833
     18 O5           6.6460    -0.7360    -0.8670 o          1 BP2      -0.941833
     19 O6           5.4950    -1.6680    -2.8010 o          1 BP2      -0.941833
     20 HC3          1.9270    -0.9080    -0.4620 h1         1 BP2       0.067700
     21 HC41         2.4850    -0.8740     1.7620 hc         1 BP2       0.082700
     22 HC42         2.4200     0.9090     1.7770 hc         1 BP2       0.082700
     23 HC5          0.5160    -0.4150     3.1900 hc         1 BP2       0.021700
     24 HC61         0.6120     2.1190     2.2410 hc         1 BP2       0.023700
     25 HC62        -1.0010     1.4540     2.6140 hc         1 BP2       0.023700
     26 HC71        -1.5450     1.5030     0.3750 hc         1 BP2       0.042200
     27 HC72         0.0600     2.1870     0.0040 hc         1 BP2       0.042200
     28 HC91        -1.9220    -1.2960     2.6210 hc         1 BP2       0.022700
     29 HC92        -2.3060    -0.0780     1.3970 hc         1 BP2       0.022700
     30 HC93        -2.3020    -1.7940     0.9660 hc         1 BP2       0.022700
     31 H101         0.0950    -2.8810     2.0380 hc         1 BP2       0.022700
     32 H102        -0.4320    -2.9180     0.3490 hc         1 BP2       0.022700
     33 H103         1.2050    -2.3840     0.7540 hc         1 BP2       0.022700
     34 H111        -0.3860     0.4130    -2.0620 hc         1 BP2       0.026700
     35 H112        -0.1730    -1.3020    -1.6870 hc         1 BP2       0.026700
     36 H113        -1.6740    -0.4790    -1.2410 hc         1 BP2       0.026700
@<TRIPOS>BOND
     1     1     2 1
     2     1     6 1
     3     1     7 1
     4     1    10 1
     5     2     3 1
     6     2    14 1
     7     2    20 1
     8     3     4 1
     9     3    21 1
    10     3    22 1
    11     4     5 1
    12     4     7 1
    13     4    23 1
    14     5     6 1
    15     5    24 1
    16     5    25 1
    17     6    26 1
    18     6    27 1
    19     7     8 1
    20     7     9 1
    21     8    28 1
    22     8    29 1
    23     8    30 1
    24     9    31 1
    25     9    32 1
    26     9    33 1
    27    10    34 1
    28    10    35 1
    29    10    36 1
    30    11    12 1
    31    11    13 1
    32    11    14 1
    33    11    15 1
    34    15    16 1
    35    16    17 1
    36    16    18 1
    37    16    19 1
@<TRIPOS>SUBSTRUCTURE
     1 BP2         1 TEMP              0 ****  ****    0 ROOT
