@<TRIPOS>MOLECULE
BP2
   36    37     1     0     0
SMALL
bcc


@<TRIPOS>ATOM
      1 C2          0.3510    0.1610    0.0090 c3        1 BP2     -0.051000
      2 C3          1.8560    0.4460    0.3990 c3        1 BP2      0.195100
      3 C4          1.8240    0.2630    1.9520 c3        1 BP2     -0.106400
      4 C5          0.3680   -0.1210    2.2690 c3        1 BP2     -0.074700
      5 C6         -0.4710    1.1560    2.0700 c3        1 BP2     -0.066400
      6 C7         -0.4700    1.3530    0.5450 c3        1 BP2     -0.073400
      7 C8         -0.0170   -0.9810    1.0220 c3        1 BP2     -0.053000
      8 C9         -1.4780   -1.3750    1.0020 c3        1 BP2     -0.087100
      9 C10         0.8300   -2.2300    0.8760 c3        1 BP2     -0.087100
     10 C11         0.1730   -0.1470   -1.4400 c3        1 BP2     -0.091100
     11 P1          3.7850    1.9030   -0.6650 p5        1 BP2      1.571800
     12 O1          4.6440    2.2320    0.5080 o         1 BP2     -0.919000
     13 O2          3.5400    2.9870   -1.6570 o         1 BP2     -0.919000
     14 O3          2.2480    1.7120    0.0350 os        1 BP2     -0.585200
     15 O           4.0790    0.4930   -1.2920 os        1 BP2     -0.823800
     16 P2          4.2990   -1.1310   -1.9340 p5        1 BP2      1.467900
     17 O4          4.4400   -0.9720   -3.4210 o         1 BP2     -0.959167
     18 O5          5.5160   -1.6780   -1.2450 o         1 BP2     -0.959167
     19 O6          2.9960   -1.7660   -1.4900 o         1 BP2     -0.959167
     20 HC3         2.5160   -0.3390   -0.1000 h1        1 BP2      0.152700
     21 HC41        2.5230   -0.5520    2.2510 hc        1 BP2      0.036200
     22 HC42        2.1250    1.2040    2.4670 hc        1 BP2      0.036200
     23 HC5         0.2140   -0.6160    3.2470 hc        1 BP2      0.001700
     24 HC61       -0.0070    2.0260    2.5910 hc        1 BP2     -0.002300
     25 HC62       -1.5060    1.0290    2.4730 hc        1 BP2     -0.002300
     26 HC71        0.0380    2.3060    0.2560 hc        1 BP2      0.031700
     27 HC72       -1.5100    1.3560    0.1360 hc        1 BP2      0.031700
     28 HC91       -1.6980   -2.0830    1.8390 hc        1 BP2      0.026200
     29 HC92       -2.1590   -0.4970    1.1050 hc        1 BP2      0.026200
     30 HC93       -1.7170   -1.8830    0.0360 hc        1 BP2      0.026200
     31 H101        1.3510   -2.4640    1.8350 hc        1 BP2      0.026200
     32 H102        1.6110   -2.1060    0.0620 hc        1 BP2      0.026200
     33 H103        0.1970   -3.1150    0.6110 hc        1 BP2      0.026200
     34 H111       -0.8740   -0.4760   -1.6570 hc        1 BP2      0.044367
     35 H112        0.9050   -0.9520   -1.7370 hc        1 BP2      0.044367
     36 H113        0.4000    0.7640   -2.0460 hc        1 BP2      0.044367
@<TRIPOS>BOND
     1    1    2 1   
     2    1    6 1   
     3    1    7 1   
     4    1   10 1   
     5    2    3 1   
     6    2   14 1   
     7    2   20 1   
     8    3    4 1   
     9    3   21 1   
    10    3   22 1   
    11    4    5 1   
    12    4    7 1   
    13    4   23 1   
    14    5    6 1   
    15    5   24 1   
    16    5   25 1   
    17    6   26 1   
    18    6   27 1   
    19    7    8 1   
    20    7    9 1   
    21    8   28 1   
    22    8   29 1   
    23    8   30 1   
    24    9   31 1   
    25    9   32 1   
    26    9   33 1   
    27   10   34 1   
    28   10   35 1   
    29   10   36 1   
    30   11   12 1   
    31   11   13 1   
    32   11   14 1   
    33   11   15 1   
    34   15   16 1   
    35   16   17 1   
    36   16   18 1   
    37   16   19 1   
@<TRIPOS>SUBSTRUCTURE
     1 BP2         1 TEMP              0 ****  ****    0 ROOT
