@<TRIPOS>MOLECULE
BP3
   24    25     1     0     0
SMALL
bcc


@<TRIPOS>ATOM
      1 CA1         0.0420   -0.1190   -0.0590 cp        1 BP3     -0.044000
      2 CA2         1.3330    0.4390    0.0050 ca        1 BP3      0.127100
      3 OA2         1.8700    0.9850   -1.1360 oh        1 BP3     -0.490100
      4 CA3         2.0330    0.4460    1.2330 ca        1 BP3      0.035100
      5 OA3         3.2950    1.0080    1.2020 oh        1 BP3     -0.519100
      6 CA4         1.4570   -0.0830    2.3880 ca        1 BP3     -0.163000
      7 CA5         0.1710   -0.6180    2.3210 ca        1 BP3     -0.132000
      8 CA6        -0.5250   -0.6340    1.1160 ca        1 BP3     -0.105000
      9 CB1        -0.7120   -0.1350   -1.3130 cp        1 BP3     -0.019000
     10 CB2        -1.2400   -1.3150   -1.8610 ca        1 BP3      0.029400
     11 CB3        -1.9830   -1.2800   -3.0470 ca        1 BP3     -0.131000
     12 CB4        -2.1970   -0.0680   -3.6980 ca        1 BP3     -0.119000
     13 CB5        -1.6630    1.1090   -3.1740 ca        1 BP3     -0.133000
     14 CB6        -0.9240    1.0740   -1.9950 ca        1 BP3     -0.093000
     15 CL1        -0.9840   -2.8300   -1.1250 cl        1 BP3     -0.095400
     16 HA2         2.8010    1.1950   -0.9580 ho        1 BP3      0.438000
     17 HA3         3.7070    0.8550    2.0640 ho        1 BP3      0.429000
     18 HA4         2.0110   -0.0730    3.3370 ha        1 BP3      0.136000
     19 HA5        -0.2940   -1.0300    3.2280 ha        1 BP3      0.138000
     20 HA6        -1.5390   -1.0620    1.0760 ha        1 BP3      0.146000
     21 HB3        -2.3920   -2.2120   -3.4670 ha        1 BP3      0.146000
     22 HB4        -2.7830   -0.0430   -4.6290 ha        1 BP3      0.136000
     23 HB5        -1.8220    2.0660   -3.6930 ha        1 BP3      0.136000
     24 HB6        -0.4790    1.9960   -1.5900 ha        1 BP3      0.148000
@<TRIPOS>BOND
     1    1    2 ar  
     2    1    8 ar  
     3    1    9 1   
     4    2    3 1   
     5    2    4 ar  
     6    3   16 1   
     7    4    5 1   
     8    4    6 ar  
     9    5   17 1   
    10    6    7 ar  
    11    6   18 1   
    12    7    8 ar  
    13    7   19 1   
    14    8   20 1   
    15    9   10 ar  
    16    9   14 ar  
    17   10   11 ar  
    18   10   15 1   
    19   11   12 ar  
    20   11   21 1   
    21   12   13 ar  
    22   12   22 1   
    23   13   14 ar  
    24   13   23 1   
    25   14   24 1   
@<TRIPOS>SUBSTRUCTURE
     1 BP3         1 TEMP              0 ****  ****    0 ROOT
