@<TRIPOS>MOLECULE
molecule
   24    25     1     0     0
SMALL
bcc


@<TRIPOS>ATOM
      1 CA1          0.0000     0.0000     0.0000 cp         1 BP3      -0.048000
      2 CA2          1.3960     0.0000     0.0000 ca         1 BP3       0.116100
      3 OA2          2.0780    -0.0100    -1.1760 oh         1 BP3      -0.501100
      4 CA3          2.0850     0.0000     1.2070 ca         1 BP3       0.079100
      5 OA3          3.4460    -0.0040     1.2120 oh         1 BP3      -0.512100
      6 CA4          1.3890     0.0110     2.4030 ca         1 BP3      -0.163000
      7 CA5          0.0050     0.0150     2.4030 ca         1 BP3      -0.122000
      8 CA6         -0.6910     0.0100     1.2110 ca         1 BP3      -0.114000
      9 CB1         -0.7450    -0.0070    -1.2810 cp         1 BP3      -0.033000
     10 CB2         -0.5750    -1.0540    -2.1850 ca         1 BP3       0.057400
     11 CB3         -1.2770    -1.0560    -3.3750 ca         1 BP3      -0.126000
     12 CB4         -2.1370    -0.0180    -3.6750 ca         1 BP3      -0.116000
     13 CB5         -2.3060     1.0270    -2.7840 ca         1 BP3      -0.133000
     14 CB6         -1.6150     1.0370    -1.5900 ca         1 BP3      -0.109000
     15 Cl1          0.5070    -2.3590    -1.8090 cl         1 BP3      -0.089400
     16 HA2          2.4220     0.8510    -1.3470 ho         1 BP3       0.424000
     17 HA3          3.7570    -0.7640     1.6770 ho         1 BP3       0.425000
     18 HA4          1.9280     0.0130     3.3420 ha         1 BP3       0.138000
     19 HA5         -0.5340     0.0230     3.3430 ha         1 BP3       0.135000
     20 HA6         -1.7740     0.0110     1.2160 ha         1 BP3       0.140000
     21 HB3         -1.1470    -1.8700    -4.0770 ha         1 BP3       0.145000
     22 HB4         -2.6840    -0.0230    -4.6100 ha         1 BP3       0.135000
     23 HB5         -2.9820     1.8390    -3.0250 ha         1 BP3       0.134000
     24 HB6         -1.7480     1.8560    -0.8930 ha         1 BP3       0.139000
@<TRIPOS>BOND
     1     1     2 ar
     2     1     8 ar
     3     1     9 1
     4     2     3 1
     5     2     4 ar
     6     3    16 1
     7     4     5 1
     8     4     6 ar
     9     5    17 1
    10     6     7 ar
    11     6    18 1
    12     7     8 ar
    13     7    19 1
    14     8    20 1
    15     9    10 ar
    16     9    14 ar
    17    10    11 ar
    18    10    15 1
    19    11    12 ar
    20    11    21 1
    21    12    13 ar
    22    12    22 1
    23    13    14 ar
    24    13    23 1
    25    14    24 1
@<TRIPOS>SUBSTRUCTURE
     1 BP3         1 TEMP              0 ****  ****    0 ROOT
