@<TRIPOS>MOLECULE
molecule
   27    28     1     0     0
SMALL
bcc


@<TRIPOS>ATOM
      1 CA           0.0000     0.0000     0.0000 c3         1 BP4      -0.158100
      2 C            1.5070     0.0000     0.0000 c          1 BP4       0.893600
      3 O            2.1110     0.0000     1.0460 o          1 BP4      -0.841800
      4 C2          -1.4260     0.0000     4.0300 cp         1 BP4      -0.090000
      5 C3          -1.1920     1.2060     3.3710 ca         1 BP4      -0.115500
      6 C4          -0.7320     1.2000     2.0700 ca         1 BP4      -0.126500
      7 C5          -0.5020     0.0000     1.4210 ca         1 BP4       0.009700
      8 C6          -0.7330    -1.1990     2.0700 ca         1 BP4      -0.126500
      9 C1          -1.1930    -1.2040     3.3710 ca         1 BP4      -0.115500
     10 C11         -2.8270     0.0010     8.0460 ca         1 BP4      -0.153000
     11 C18         -2.1480    -1.2040     6.0910 ca         1 BP4      -0.132500
     12 C20         -1.9150     0.0010     5.4320 cp         1 BP4       0.005000
     13 C23         -2.6030    -1.1990     7.3950 ca         1 BP4      -0.130000
     14 C25         -2.1410     1.2070     6.0940 ca         1 BP4      -0.132500
     15 C26         -2.5960     1.2000     7.3960 ca         1 BP4      -0.130000
     16 HA1         -0.3610    -0.8850    -0.5100 hc         1 BP4       0.040700
     17 HA2         -0.3610     0.8840    -0.5110 hc         1 BP4       0.040700
     18 O2           2.1780    -0.0000    -1.1630 o          1 BP4      -0.841800
     19 H6          -0.5520    -2.1350     1.5560 ha         1 BP4       0.130000
     20 H1          -1.3740    -2.1440     3.8790 ha         1 BP4       0.113000
     21 H11         -3.1840     0.0010     9.0690 ha         1 BP4       0.114000
     22 H18         -1.9730    -2.1440     5.5820 ha         1 BP4       0.134000
     23 H23         -2.7850    -2.1350     7.9080 ha         1 BP4       0.117000
     24 H25         -1.9610     2.1470     5.5860 ha         1 BP4       0.134000
     25 H26         -2.7730     2.1370     7.9110 ha         1 BP4       0.117000
     26 H3          -1.3720     2.1460     3.8800 ha         1 BP4       0.113000
     27 H4          -0.5500     2.1370     1.5570 ha         1 BP4       0.130000
@<TRIPOS>BOND
     1     1     2 1
     2     1     7 1
     3     1    16 1
     4     1    17 1
     5     2     3 1
     6     2    18 1
     7     4     5 ar
     8     4     9 ar
     9     4    12 1
    10     5     6 ar
    11     5    26 1
    12     6     7 ar
    13     6    27 1
    14     7     8 ar
    15     8     9 ar
    16     8    19 1
    17     9    20 1
    18    10    13 ar
    19    10    15 ar
    20    10    21 1
    21    11    12 ar
    22    11    13 ar
    23    11    22 1
    24    12    14 ar
    25    13    23 1
    26    14    15 ar
    27    14    24 1
    28    15    25 1
@<TRIPOS>SUBSTRUCTURE
     1 BP4         1 TEMP              0 ****  ****    0 ROOT
