@<TRIPOS>MOLECULE
BP4
   27    28     1     0     0
SMALL
bcc


@<TRIPOS>ATOM
      1 CA          0.1290   -0.0910    0.0360 c3        1 BP4     -0.181100
      2 C           1.6170   -0.5060   -0.0800 c         1 BP4      0.919600
      3 O           1.9370   -1.6810    0.2610 o         1 BP4     -0.838300
      4 C2         -1.3690    0.0260    4.0660 cp        1 BP4     -0.097000
      5 C3         -1.6200    1.0840    3.1830 ca        1 BP4     -0.122000
      6 C4         -1.1250    1.0510    1.8820 ca        1 BP4     -0.144500
      7 C5         -0.3650   -0.0360    1.4300 ca        1 BP4      0.000700
      8 C6         -0.0990   -1.0880    2.3230 ca        1 BP4     -0.144500
      9 C1         -0.5960   -1.0580    3.6190 ca        1 BP4     -0.122000
     10 C11        -2.9210    0.1000    8.0420 ca        1 BP4     -0.152000
     11 C18        -2.3720   -1.1240    6.0310 ca        1 BP4     -0.131000
     12 C20        -1.8980    0.0510    5.4260 cp        1 BP4      0.006000
     13 C23        -2.8780   -1.0970    7.3280 ca        1 BP4     -0.135000
     14 C25        -1.9440    1.2510    6.1540 ca        1 BP4     -0.131000
     15 C26        -2.4520    1.2720    7.4510 ca        1 BP4     -0.135000
     16 HA1        -0.0050    0.8990   -0.4680 hc        1 BP4      0.039700
     17 HA2        -0.4680   -0.8570   -0.5270 hc        1 BP4      0.039700
     18 O2          2.4200    0.3450   -0.5500 o         1 BP4     -0.838300
     19 H6          0.5450   -1.9170    1.9690 ha        1 BP4      0.156000
     20 H1         -0.3690   -1.8850    4.3090 ha        1 BP4      0.113500
     21 H11        -3.3210    0.1190    9.0650 ha        1 BP4      0.117000
     22 H18        -2.3430   -2.0700    5.4700 ha        1 BP4      0.135500
     23 H23        -3.2470   -2.0250    7.7890 ha        1 BP4      0.119000
     24 H25        -1.5650    2.1770    5.6960 ha        1 BP4      0.135500
     25 H26        -2.4800    2.2180    8.0110 ha        1 BP4      0.119000
     26 H3         -2.2200    1.9420    3.5170 ha        1 BP4      0.113500
     27 H4         -1.3260    1.8920    1.2020 ha        1 BP4      0.156000
@<TRIPOS>BOND
     1    1    2 1   
     2    1    7 1   
     3    1   16 1   
     4    1   17 1   
     5    2    3 1   
     6    2   18 1   
     7    4    5 ar  
     8    4    9 ar  
     9    4   12 1   
    10    5    6 ar  
    11    5   26 1   
    12    6    7 ar  
    13    6   27 1   
    14    7    8 ar  
    15    8    9 ar  
    16    8   19 1   
    17    9   20 1   
    18   10   13 ar  
    19   10   15 ar  
    20   10   21 1   
    21   11   12 ar  
    22   11   13 ar  
    23   11   22 1   
    24   12   14 ar  
    25   13   23 1   
    26   14   15 ar  
    27   14   24 1   
    28   15   25 1   
@<TRIPOS>SUBSTRUCTURE
     1 BP4         1 TEMP              0 ****  ****    0 ROOT
