@<TRIPOS>MOLECULE
molecule
   24    25     1     0     0
SMALL
bcc


@<TRIPOS>ATOM
      1 CA1          0.0000     0.0000     0.0000 cp         1 BP6      -0.056000
      2 CA2          1.3950     0.0000     0.0000 ca         1 BP6       0.126100
      3 OA2          2.0780    -0.0120    -1.1760 oh         1 BP6      -0.505100
      4 CA3          2.0850     0.0000     1.2070 ca         1 BP6       0.056100
      5 OA3          3.4450    -0.0070     1.2140 oh         1 BP6      -0.520100
      6 CA4          1.3870     0.0120     2.4030 ca         1 BP6      -0.139000
      7 CA5          0.0040     0.0190     2.4020 ca         1 BP6      -0.132000
      8 CA6         -0.6920     0.0130     1.2100 ca         1 BP6      -0.093000
      9 CB1         -0.7440    -0.0060    -1.2820 cp         1 BP6      -0.015000
     10 CB2         -1.0910     1.1960    -1.8970 ca         1 BP6       0.051400
     11 CB3         -1.7850     1.1830    -3.0910 ca         1 BP6      -0.123000
     12 CB4         -2.1360    -0.0190    -3.6770 ca         1 BP6      -0.110000
     13 CB5         -1.7950    -1.2150    -3.0730 ca         1 BP6      -0.123000
     14 CB6         -1.0960    -1.2150    -1.8810 ca         1 BP6       0.051400
     15 Cl1         -0.6500     2.7070    -1.1630 cl         1 BP6      -0.092400
     16 Cl2         -0.6690    -2.7170    -1.1230 cl         1 BP6      -0.092400
     17 HA2          2.6100     0.7640    -1.2390 ho         1 BP6       0.432000
     18 HA3          3.7540    -0.8570     1.4780 ho         1 BP6       0.425000
     19 HA4          1.9260     0.0140     3.3430 ha         1 BP6       0.141000
     20 HA5         -0.5360     0.0280     3.3410 ha         1 BP6       0.137000
     21 HA6         -1.7750     0.0160     1.2150 ha         1 BP6       0.142000
     22 HB3         -2.0550     2.1170    -3.5690 ha         1 BP6       0.148000
     23 HB4         -2.6820    -0.0230    -4.6130 ha         1 BP6       0.142000
     24 HB5         -2.0700    -2.1540    -3.5380 ha         1 BP6       0.148000
@<TRIPOS>BOND
     1     1     2 ar
     2     1     8 ar
     3     1     9 1
     4     2     3 1
     5     2     4 ar
     6     3    17 1
     7     4     5 1
     8     4     6 ar
     9     5    18 1
    10     6     7 ar
    11     6    19 1
    12     7     8 ar
    13     7    20 1
    14     8    21 1
    15     9    10 ar
    16     9    14 ar
    17    10    11 ar
    18    10    15 1
    19    11    12 ar
    20    11    22 1
    21    12    13 ar
    22    12    23 1
    23    13    14 ar
    24    13    24 1
    25    14    16 1
@<TRIPOS>SUBSTRUCTURE
     1 BP6         1 TEMP              0 ****  ****    0 ROOT
