@<TRIPOS>MOLECULE
BP6
   24    25     1     0     0
SMALL
bcc


@<TRIPOS>ATOM
      1 CA1         0.0060   -0.0120   -0.0430 cp        1 BP6     -0.054000
      2 CA2         1.4130   -0.0020   -0.0470 ca        1 BP6      0.142100
      3 OA2         2.0640    0.0170   -1.2550 oh        1 BP6     -0.484100
      4 CA3         2.1110   -0.0100    1.1830 ca        1 BP6      0.034100
      5 OA3         3.4900    0.0010    1.0900 oh        1 BP6     -0.518100
      6 CA4         1.4230   -0.0290    2.3960 ca        1 BP6     -0.160000
      7 CA5         0.0290   -0.0400    2.3880 ca        1 BP6     -0.135000
      8 CA6        -0.6700   -0.0310    1.1850 ca        1 BP6     -0.099000
      9 CB1        -0.7560   -0.0030   -1.2950 cp        1 BP6     -0.009000
     10 CB2        -1.1440    1.2060   -1.8970 ca        1 BP6      0.043400
     11 CB3        -1.8740    1.2170   -3.0890 ca        1 BP6     -0.130000
     12 CB4        -2.2280    0.0130   -3.6940 ca        1 BP6     -0.111000
     13 CB5        -1.8590   -1.1980   -3.1160 ca        1 BP6     -0.130000
     14 CB6        -1.1280   -1.2050   -1.9230 ca        1 BP6      0.043400
     15 CL1        -0.7350    2.6960   -1.1860 cl        1 BP6     -0.080400
     16 CL2        -0.7000   -2.7040   -1.2450 cl        1 BP6     -0.080400
     17 HA2         3.0190    0.0230   -1.0820 ho        1 BP6      0.438000
     18 HA3         3.8460   -0.0050    1.9890 ho        1 BP6      0.430000
     19 HA4         1.9770   -0.0360    3.3460 ha        1 BP6      0.136000
     20 HA5        -0.5210   -0.0540    3.3410 ha        1 BP6      0.138000
     21 HA6        -1.7700   -0.0400    1.1890 ha        1 BP6      0.143000
     22 HB3        -2.1670    2.1730   -3.5490 ha        1 BP6      0.150000
     23 HB4        -2.8000    0.0200   -4.6340 ha        1 BP6      0.142000
     24 HB5        -2.1380   -2.1480   -3.5960 ha        1 BP6      0.150000
@<TRIPOS>BOND
     1    1    2 ar  
     2    1    8 ar  
     3    1    9 1   
     4    2    3 1   
     5    2    4 ar  
     6    3   17 1   
     7    4    5 1   
     8    4    6 ar  
     9    5   18 1   
    10    6    7 ar  
    11    6   19 1   
    12    7    8 ar  
    13    7   20 1   
    14    8   21 1   
    15    9   10 ar  
    16    9   14 ar  
    17   10   11 ar  
    18   10   15 1   
    19   11   12 ar  
    20   11   22 1   
    21   12   13 ar  
    22   12   23 1   
    23   13   14 ar  
    24   13   24 1   
    25   14   16 1   
@<TRIPOS>SUBSTRUCTURE
     1 BP6         1 TEMP              0 ****  ****    0 ROOT
