@<TRIPOS>MOLECULE
molecule
   24    25     1     0     0
SMALL
bcc


@<TRIPOS>ATOM
      1 CA1          0.0000     0.0000     0.0000 cp         1 BP7      -0.031000
      2 CA2          1.3940     0.0000     0.0000 ca         1 BP7      -0.145000
      3 CA3          2.0830     0.0000     1.2000 ca         1 BP7       0.091100
      4 OA3          3.4430     0.0000     1.2030 oh         1 BP7      -0.510100
      5 CA4          1.3830    -0.0120     2.4040 ca         1 BP7       0.091100
      6 OA4          2.0610    -0.0160     3.5820 oh         1 BP7      -0.510100
      7 CA5         -0.0040    -0.0120     2.4030 ca         1 BP7      -0.152000
      8 CA6         -0.6950    -0.0060     1.2080 ca         1 BP7      -0.114000
      9 CB1         -0.7420     0.0050    -1.2840 cp         1 BP7      -0.042000
     10 CB2         -1.8930     0.7790    -1.4240 ca         1 BP7      -0.116000
     11 CB3         -2.5790     0.7800    -2.6220 ca         1 BP7      -0.128000
     12 CB4         -2.1280     0.0150    -3.6810 ca         1 BP7      -0.125000
     13 CB5         -0.9870    -0.7560    -3.5480 ca         1 BP7      -0.128000
     14 CB6         -0.2890    -0.7610    -2.3570 ca         1 BP7      -0.116000
     15 HA2          1.9370     0.0050    -0.9370 ha         1 BP7       0.146000
     16 HA3          3.7570     0.8480     0.9360 ho         1 BP7       0.422000
     17 HA4          2.0170    -0.8760     3.9660 ho         1 BP7       0.422000
     18 HA5         -0.5450    -0.0190     3.3410 ha         1 BP7       0.143000
     19 HA6         -1.7780    -0.0060     1.2090 ha         1 BP7       0.139000
     20 HB2         -2.2470     1.3790    -0.5950 ha         1 BP7       0.134500
     21 HB3         -3.4740     1.3820    -2.7320 ha         1 BP7       0.131000
     22 HB4         -2.6710     0.0170    -4.6190 ha         1 BP7       0.130000
     23 HB5         -0.6370    -1.3520    -4.3820 ha         1 BP7       0.131000
     24 HB6          0.6040    -1.3640    -2.2540 ha         1 BP7       0.134500
@<TRIPOS>BOND
     1     1     2 ar
     2     1     8 ar
     3     1     9 1
     4     2     3 ar
     5     2    15 1
     6     3     4 1
     7     3     5 ar
     8     4    16 1
     9     5     6 1
    10     5     7 ar
    11     6    17 1
    12     7     8 ar
    13     7    18 1
    14     8    19 1
    15     9    10 ar
    16     9    14 ar
    17    10    11 ar
    18    10    20 1
    19    11    12 ar
    20    11    21 1
    21    12    13 ar
    22    12    22 1
    23    13    14 ar
    24    13    23 1
    25    14    24 1
@<TRIPOS>SUBSTRUCTURE
     1 BP7         1 TEMP              0 ****  ****    0 ROOT
