@<TRIPOS>MOLECULE
BP8
   31    32     1     0     0
SMALL
bcc


@<TRIPOS>ATOM
      1 C1           0.0000     0.0000     0.0000 c3         1 BP8      -0.026400
      2 C32          1.5310     0.0000     0.0000 c3         1 BP8      -0.031400
      3 C30          2.0400     0.0000     1.4420 c3         1 BP8      -0.022200
      4 C33          3.5470     0.0000     1.4420 cc         1 BP8       0.398700
      5 S35          4.5870    -1.4250     1.4330 ss         1 BP8      -0.452800
      6 N26          4.3080     1.0460     1.4420 nd         1 BP8      -0.248000
      7 N28          5.5570     0.8690     1.4410 nd         1 BP8      -0.364000
      8 C31          5.9930    -0.3580     1.4380 cc         1 BP8       0.537300
      9 N27          7.3220    -0.7550     1.4360 nv         1 BP8      -0.482000
     10 H1          -0.3610     0.8840     0.5110 hc         1 BP8       0.016200
     11 H2          -0.3610    -0.8840     0.5110 hc         1 BP8       0.016200
     12 H3           1.8920     0.8850    -0.5110 hc         1 BP8       0.024450
     13 H4           1.6790     0.8840     1.9530 hc         1 BP8       0.029700
     14 H5           1.6790    -0.8850     1.9530 hc         1 BP8       0.029700
     15 H6           7.6760    -1.3210     2.1810 hn         1 BP8       0.276300
     16 H7           7.9220    -0.4880     0.6810 hn         1 BP8       0.276300
     17 C2          -0.5110     0.0000    -1.4420 c3         1 BP8      -0.031400
     18 C3          -2.0410     0.0000    -1.4410 c3         1 BP8      -0.022200
     19 C4          -2.5430    -0.0000    -2.8620 cc         1 BP8       0.398700
     20 S1          -2.8900     1.4270    -3.8410 ss         1 BP8      -0.452800
     21 C6          -3.3580     0.3600    -5.1670 cc         1 BP8       0.537300
     22 N2          -3.2130    -0.8680    -4.7580 nd         1 BP8      -0.364000
     23 N1          -2.7920    -1.0450    -3.5820 nd         1 BP8      -0.248000
     24 N3          -3.8020     0.7580    -6.4200 nv         1 BP8      -0.482000
     25 H8           1.8920    -0.8850    -0.5110 hc         1 BP8       0.024450
     26 H9          -0.1500    -0.8840    -1.9530 hc         1 BP8       0.024450
     27 H10         -0.1500     0.8850    -1.9530 hc         1 BP8       0.024450
     28 H11         -2.4020     0.8850    -0.9310 hc         1 BP8       0.029700
     29 H12         -2.4010    -0.8840    -0.9310 hc         1 BP8       0.029700
     30 H13         -3.8800     1.7320    -6.6370 hn         1 BP8       0.276300
     31 H14         -4.0450     0.0710    -7.1060 hn         1 BP8       0.276300
@<TRIPOS>BOND
     1     1     2 1   
     2     1    10 1   
     3     1    11 1   
     4     1    17 1   
     5     2     3 1   
     6     2    12 1   
     7     2    25 1   
     8     3     4 1   
     9     3    13 1   
    10     3    14 1   
    11     4     5 1   
    12     4     6 2   
    13     5     8 1   
    14     6     7 1   
    15     7     8 2   
    16     8     9 1   
    17     9    15 1   
    18     9    16 1   
    19    17    18 1   
    20    17    26 1   
    21    17    27 1   
    22    18    19 1   
    23    18    28 1   
    24    18    29 1   
    25    19    20 1   
    26    19    23 2   
    27    20    21 1   
    28    21    22 2   
    29    21    24 1   
    30    22    23 1   
    31    24    30 1   
    32    24    31 1   
@<TRIPOS>SUBSTRUCTURE
     1 BP8         1 TEMP              0 ****  ****    0 ROOT
