@<TRIPOS>MOLECULE
molecule
   31    32     1     0     0
SMALL
bcc


@<TRIPOS>ATOM
      1 C1           0.0000     0.0000     0.0000 c3         1 BP8      -0.082400
      2 C32          1.5310     0.0000     0.0000 c3         1 BP8      -0.079900
      3 C30          2.0400     0.0000     1.4420 c3         1 BP8      -0.093200
      4 C33          3.5470     0.0000     1.4420 cc         1 BP8       0.414200
      5 S35          4.5870    -1.4250     1.4330 ss         1 BP8      -0.390300
      6 N26          4.3080     1.0460     1.4420 nd         1 BP8      -0.305500
      7 N28          5.5570     0.8690     1.4410 nd         1 BP8      -0.391000
      8 C31          5.9930    -0.3580     1.4380 cc         1 BP8       0.697300
      9 N27          7.3220    -0.7550     1.4360 nv         1 BP8      -0.994000
     10 H1          -0.3610     0.8840     0.5110 hc         1 BP8       0.043700
     11 H2          -0.3610    -0.8840     0.5110 hc         1 BP8       0.043700
     12 H3           1.8920     0.8850    -0.5110 hc         1 BP8       0.053450
     13 H4           1.6790     0.8840     1.9530 hc         1 BP8       0.065450
     14 H5           1.6790    -0.8850     1.9530 hc         1 BP8       0.065450
     15 H6           7.6760    -1.3210     2.1810 hn         1 BP8       0.451050
     16 H7           7.9220    -0.4880     0.6810 hn         1 BP8       0.451050
     17 C2          -0.5110     0.0000    -1.4420 c3         1 BP8      -0.079900
     18 C3          -2.0410     0.0000    -1.4410 c3         1 BP8      -0.093200
     19 C4          -2.5430    -0.0000    -2.8620 cc         1 BP8       0.414200
     20 S1          -2.8900     1.4270    -3.8410 ss         1 BP8      -0.390300
     21 C6          -3.3580     0.3600    -5.1670 cc         1 BP8       0.697300
     22 N2          -3.2130    -0.8680    -4.7580 nd         1 BP8      -0.391000
     23 N1          -2.7920    -1.0450    -3.5820 nd         1 BP8      -0.305500
     24 N3          -3.8020     0.7580    -6.4200 nv         1 BP8      -0.994000
     25 H8           1.8920    -0.8850    -0.5110 hc         1 BP8       0.053450
     26 H9          -0.1500    -0.8840    -1.9530 hc         1 BP8       0.053450
     27 H10         -0.1500     0.8850    -1.9530 hc         1 BP8       0.053450
     28 H11         -2.4020     0.8850    -0.9310 hc         1 BP8       0.065450
     29 H12         -2.4010    -0.8840    -0.9310 hc         1 BP8       0.065450
     30 H13         -3.8800     1.7320    -6.6370 hn         1 BP8       0.451050
     31 H14         -4.0450     0.0710    -7.1060 hn         1 BP8       0.451050
@<TRIPOS>BOND
     1     9     8 1
     2     5     8 1
     3     5     4 1
     4     8     7 2
     5     4     3 1
     6     4     6 2
     7     7     6 1
     8     1     2 1
     9     3     2 1
    10     1    10 1
    11     1    11 1
    12     2    12 1
    13     3    13 1
    14     3    14 1
    15     9    15 1
    16     9    16 1
    17     1    17 1
    18    17    18 1
    19    18    19 1
    20    19    20 1
    21    20    21 1
    22    21    22 2
    23    22    23 1
    24    23    19 2
    25    21    24 1
    26     2    25 1
    27    17    26 1
    28    17    27 1
    29    18    28 1
    30    18    29 1
    31    24    30 1
    32    24    31 1
@<TRIPOS>SUBSTRUCTURE
     1 BP8         1 TEMP              0 ****  ****    0 ROOT
