@<TRIPOS>MOLECULE
molecule
   28    29     1     0     0
SMALL
bcc


@<TRIPOS>ATOM
      1 N26          0.0000     0.0000     0.0000 nc         1 BP9      -0.302000
      2 N27          3.2370     0.0010     1.3610 nv         1 BP9      -0.994500
      3 N28          1.2610     0.0000     0.0000 nd         1 BP9      -0.390000
      4 C30         -2.0980    -0.0030     1.3540 c3         1 BP9      -0.092200
      5 C31          1.8650     0.0000     1.1540 cc         1 BP9       0.698800
      6 C32         -2.6030    -1.4460     1.4240 c3         1 BP9      -0.081400
      7 C33         -0.6070    -0.0010     1.1420 cd         1 BP9       0.414200
      8 S35          0.6230    -0.0020     2.4080 ss         1 BP9      -0.395800
      9 H1           3.7940    -0.7570     1.0190 hn         1 BP9       0.451300
     10 H2           3.6660     0.7510     1.8650 hn         1 BP9       0.451300
     11 H3          -2.3320     0.5070     2.2810 hc         1 BP9       0.067200
     12 H4          -2.5810     0.5080     0.5290 hc         1 BP9       0.067200
     13 H5          -2.3700    -1.9560     0.4970 hc         1 BP9       0.052950
     14 H6          -2.1210    -1.9570     2.2490 hc         1 BP9       0.052950
     15 C1          -4.1180    -1.4470     1.6390 c3         1 BP9      -0.081400
     16 C2          -4.6210    -2.8900     1.7100 c3         1 BP9      -0.092200
     17 C3          -6.1140    -2.8920     1.9210 cc         1 BP9       0.414200
     18 N1          -7.0140    -2.8910     0.9940 nd         1 BP9      -0.302000
     19 N2          -8.2250    -2.8930     1.3460 nd         1 BP9      -0.390000
     20 C6          -8.4830    -2.8940     2.6220 cc         1 BP9       0.698800
     21 S1          -6.9410    -2.9000     3.4810 ss         1 BP9      -0.395800
     22 N3          -9.7430    -2.8950     3.2020 nv         1 BP9      -0.994500
     23 H7          -4.6000    -0.9360     0.8150 hc         1 BP9       0.052950
     24 H8          -4.3510    -0.9370     2.5660 hc         1 BP9       0.052950
     25 H9          -4.1390    -3.4010     2.5340 hc         1 BP9       0.067200
     26 H10         -4.3880    -3.4000     0.7830 hc         1 BP9       0.067200
     27 H11         -9.8350    -2.8980     4.1990 hn         1 BP9       0.451300
     28 H12        -10.5600    -2.8920     2.6250 hn         1 BP9       0.451300
@<TRIPOS>BOND
     1     2     5 1
     2     8     5 1
     3     8     7 1
     4     5     3 2
     5     7     4 1
     6     7     1 2
     7     3     1 1
     8     4     6 1
     9     2     9 1
    10     2    10 1
    11     4    11 1
    12     4    12 1
    13     6    13 1
    14     6    14 1
    15     6    15 1
    16    15    16 1
    17    16    17 1
    18    17    18 2
    19    18    19 1
    20    19    20 2
    21    20    21 1
    22    21    17 1
    23    20    22 1
    24    15    23 1
    25    15    24 1
    26    16    25 1
    27    16    26 1
    28    22    27 1
    29    22    28 1
@<TRIPOS>SUBSTRUCTURE
     1 BP9         1 TEMP              0 ****  ****    0 ROOT
