@<TRIPOS>MOLECULE
molecule
   39    43     1     0     0
SMALL
bcc


@<TRIPOS>ATOM
      1 C10          0.0000     0.0000     0.0000 c3         1 BPA      -0.059100
      2 C9           1.5260     0.0000     0.0000 c3         1 BPA       0.140100
      3 C8           2.0100     0.0000     1.4540 c3         1 BPA       0.131100
      4 C7           1.6860    -1.3600     2.0670 c3         1 BPA       0.184400
      5 C6A          0.2370    -1.7150     1.8450 ca         1 BPA      -0.090300
      6 C6          -0.2940    -2.7150     2.6520 ca         1 BPA      -0.085000
      7 C5A         -1.6200    -3.1170     2.5110 ca         1 BPA      -0.037000
      8 C5          -2.1870    -4.1330     3.3180 ca         1 BPA      -0.111000
      9 C4          -3.4780    -4.5040     3.1620 ca         1 BPA      -0.116000
     10 C3A         -4.3000    -3.8880     2.1860 ca         1 BPA      -0.030000
     11 C3          -5.6360    -4.2540     2.0090 ca         1 BPA      -0.111000
     12 C2          -6.4030    -3.6300     1.0470 ca         1 BPA      -0.126000
     13 C1          -5.8840    -2.6360     0.2390 ca         1 BPA      -0.112000
     14 C2A         -4.5520    -2.2400     0.3840 ca         1 BPA      -0.031000
     15 C2B         -3.7580    -2.8720     1.3670 ca         1 BPA      -0.017000
     16 C2C         -2.4160    -2.4860     1.5290 ca         1 BPA      -0.009000
     17 C12         -3.9820    -1.2250    -0.4230 ca         1 BPA      -0.112000
     18 C11         -2.6910    -0.8560    -0.2640 ca         1 BPA      -0.119000
     19 C1B         -1.8730    -1.4740     0.7140 ca         1 BPA      -0.033000
     20 C1A         -0.5340    -1.0930     0.8890 ca         1 BPA      -0.052300
     21 O9           2.0090     1.1680    -0.6680 oh         1 BPA      -0.596800
     22 O8           3.4200     0.2240     1.4950 oh         1 BPA      -0.602800
     23 O7           1.9520    -1.3190     3.4700 oh         1 BPA      -0.598800
     24 H101        -0.3550    -0.1590    -1.0110 hc         1 BPA       0.065700
     25 H102        -0.3550     0.9570     0.3620 hc         1 BPA       0.065700
     26 H9           1.8890    -0.8890    -0.5020 h1         1 BPA       0.044700
     27 H8           1.4970     0.7780     2.0060 h1         1 BPA       0.064700
     28 H7           2.3110    -2.1150     1.6040 h1         1 BPA       0.053700
     29 H6           0.3320    -3.1890     3.3980 ha         1 BPA       0.140000
     30 H5          -1.5790    -4.6190     4.0710 ha         1 BPA       0.133000
     31 H4          -3.8900    -5.2840     3.7910 ha         1 BPA       0.132000
     32 H3          -6.0710    -5.0300     2.6270 ha         1 BPA       0.133000
     33 H2          -7.4380    -3.9270     0.9210 ha         1 BPA       0.130000
     34 H1          -6.5110    -2.1640    -0.5080 ha         1 BPA       0.133000
     35 H12         -4.5880    -0.7380    -1.1770 ha         1 BPA       0.132000
     36 H11         -2.2770    -0.0770    -0.8930 ha         1 BPA       0.134000
     37 HO9          2.3300     0.9310    -1.5220 ho         1 BPA       0.407000
     38 HO8          3.6030     0.9830     2.0240 ho         1 BPA       0.414000
     39 HO7          2.7150    -1.8390     3.6610 ho         1 BPA       0.408000
@<TRIPOS>BOND
     1     1     2 1
     2     1    20 1
     3     1    24 1
     4     1    25 1
     5     2     3 1
     6     2    21 1
     7     2    26 1
     8     3     4 1
     9     3    22 1
    10     3    27 1
    11     4     5 1
    12     4    23 1
    13     4    28 1
    14     5     6 ar
    15     5    20 ar
    16     6     7 ar
    17     6    29 1
    18     7     8 ar
    19     7    16 ar
    20     8     9 ar
    21     8    30 1
    22     9    10 ar
    23     9    31 1
    24    10    11 ar
    25    10    15 ar
    26    11    12 ar
    27    11    32 1
    28    12    13 ar
    29    12    33 1
    30    13    14 ar
    31    13    34 1
    32    14    15 ar
    33    14    17 ar
    34    15    16 ar
    35    16    19 ar
    36    17    18 ar
    37    17    35 1
    38    18    19 ar
    39    18    36 1
    40    19    20 ar
    41    21    37 1
    42    22    38 1
    43    23    39 1
@<TRIPOS>SUBSTRUCTURE
     1 BPA         1 TEMP              0 ****  ****    0 ROOT
