@<TRIPOS>MOLECULE
BPA
   39    43     1     0     0
SMALL
bcc


@<TRIPOS>ATOM
      1 C10         0.0950   -0.0960   -0.0030 c3        1 BPA     -0.071100
      2 C9          1.6090    0.0440    0.0970 c3        1 BPA      0.109100
      3 C8          2.0680   -0.0570    1.5550 c3        1 BPA      0.114100
      4 C7          1.7230   -1.4600    2.0790 c3        1 BPA      0.196400
      5 C6A         0.2700   -1.7770    1.8770 ca        1 BPA     -0.080300
      6 C6         -0.3050   -2.7500    2.7000 ca        1 BPA     -0.080000
      7 C5A        -1.6400   -3.1270    2.5370 ca        1 BPA     -0.040000
      8 C5         -2.2480   -4.1340    3.3680 ca        1 BPA     -0.109000
      9 C4         -3.5430   -4.4960    3.2000 ca        1 BPA     -0.118000
     10 C3A        -4.3620   -3.8840    2.1870 ca        1 BPA     -0.031000
     11 C3         -5.7030   -4.2450    2.0010 ca        1 BPA     -0.114000
     12 C2         -6.4700   -3.6300    1.0150 ca        1 BPA     -0.126000
     13 C1         -5.9190   -2.6460    0.1990 ca        1 BPA     -0.114000
     14 C2A        -4.5810   -2.2610    0.3580 ca        1 BPA     -0.035000
     15 C2B        -3.7900   -2.8840    1.3570 ca        1 BPA     -0.016000
     16 C2C        -2.4170   -2.5030    1.5280 ca        1 BPA     -0.008000
     17 C12        -3.9760   -1.2440   -0.4580 ca        1 BPA     -0.112000
     18 C11        -2.6780   -0.8860   -0.2930 ca        1 BPA     -0.120000
     19 C1B        -1.8380   -1.5070    0.7000 ca        1 BPA     -0.033000
     20 C1A        -0.4830   -1.1520    0.8730 ca        1 BPA     -0.050300
     21 O9          2.0320    1.3240   -0.3580 oh        1 BPA     -0.608800
     22 O8          3.4760    0.0740    1.6630 oh        1 BPA     -0.612800
     23 O7          2.0220   -1.5510    3.4660 oh        1 BPA     -0.596800
     24 H101       -0.1640   -0.3110   -1.0760 hc        1 BPA      0.063200
     25 H102       -0.3750    0.8920    0.2660 hc        1 BPA      0.063200
     26 H9          2.1200   -0.7520   -0.5140 h1        1 BPA      0.052700
     27 H8          1.5680    0.7350    2.1780 h1        1 BPA      0.069700
     28 H7          2.3480   -2.2210    1.5240 h1        1 BPA      0.056700
     29 H6          0.3070   -3.2120    3.4920 ha        1 BPA      0.156000
     30 H5         -1.6210   -4.5990    4.1450 ha        1 BPA      0.137000
     31 H4         -4.0070   -5.2670    3.8350 ha        1 BPA      0.134000
     32 H3         -6.1490   -5.0210    2.6420 ha        1 BPA      0.134000
     33 H2         -7.5220   -3.9250    0.8800 ha        1 BPA      0.134000
     34 H1         -6.5340   -2.1640   -0.5770 ha        1 BPA      0.134000
     35 H12        -4.6050   -0.7600   -1.2210 ha        1 BPA      0.133000
     36 H11        -2.2450   -0.0940   -0.9240 ha        1 BPA      0.130000
     37 HO9         1.7530    1.4020   -1.2770 ho        1 BPA      0.410000
     38 HO8         3.7100    0.9070    1.2330 ho        1 BPA      0.428000
     39 HO7         2.9320   -1.2400    3.5660 ho        1 BPA      0.423000
@<TRIPOS>BOND
     1    1    2 1   
     2    1   20 1   
     3    1   24 1   
     4    1   25 1   
     5    2    3 1   
     6    2   21 1   
     7    2   26 1   
     8    3    4 1   
     9    3   22 1   
    10    3   27 1   
    11    4    5 1   
    12    4   23 1   
    13    4   28 1   
    14    5    6 ar  
    15    5   20 ar  
    16    6    7 ar  
    17    6   29 1   
    18    7    8 ar  
    19    7   16 ar  
    20    8    9 ar  
    21    8   30 1   
    22    9   10 ar  
    23    9   31 1   
    24   10   11 ar  
    25   10   15 ar  
    26   11   12 ar  
    27   11   32 1   
    28   12   13 ar  
    29   12   33 1   
    30   13   14 ar  
    31   13   34 1   
    32   14   15 ar  
    33   14   17 ar  
    34   15   16 ar  
    35   16   19 ar  
    36   17   18 ar  
    37   17   35 1   
    38   18   19 ar  
    39   18   36 1   
    40   19   20 ar  
    41   21   37 1   
    42   22   38 1   
    43   23   39 1   
@<TRIPOS>SUBSTRUCTURE
     1 BPA         1 TEMP              0 ****  ****    0 ROOT
