@<TRIPOS>MOLECULE
BPC
   39    43     1     0     0
SMALL
bcc


@<TRIPOS>ATOM
      1 C1          0.0390    0.0290   -0.0310 ca        1 BPC     -0.113000
      2 C2          1.4320    0.0250   -0.0420 ca        1 BPC     -0.126000
      3 C3          2.1500    0.0120    1.1510 ca        1 BPC     -0.113000
      4 C3A         1.4800    0.0030    2.3810 ca        1 BPC     -0.035000
      5 C4          2.1830   -0.0170    3.6350 ca        1 BPC     -0.110000
      6 C5          1.5190   -0.0230    4.8180 ca        1 BPC     -0.122000
      7 C5A         0.0790   -0.0050    4.8800 ca        1 BPC     -0.031000
      8 C6         -0.6230   -0.0040    6.1050 ca        1 BPC     -0.063300
      9 C7         -2.0250    0.0000    6.0930 ca        1 BPC     -0.085300
     10 C8         -2.7310    0.0010    4.8870 ca        1 BPC     -0.080000
     11 C8A        -2.0570    0.0050    3.6640 ca        1 BPC     -0.038000
     12 C9         -2.7650    0.0110    2.4100 ca        1 BPC     -0.110000
     13 C10        -2.1010    0.0200    1.2280 ca        1 BPC     -0.116000
     14 C1A        -0.6620    0.0200    1.1820 ca        1 BPC     -0.031000
     15 C3B         0.0610    0.0100    2.4040 ca        1 BPC     -0.017000
     16 C5B        -0.6380    0.0040    3.6560 ca        1 BPC     -0.009000
     17 C1'        -2.8080    0.0470    7.3710 c3        1 BPC      0.161400
     18 O1'        -4.0340   -0.6480    7.1900 oh        1 BPC     -0.595800
     19 C2'        -2.0150   -0.5570    8.5420 c3        1 BPC      0.076100
     20 O2'        -2.7640   -0.4200    9.7350 oh        1 BPC     -0.599800
     21 C3'        -0.6460    0.1200    8.6540 c3        1 BPC      0.113100
     22 O3'        -0.8020    1.4780    9.0340 oh        1 BPC     -0.601800
     23 C4'         0.1590   -0.0380    7.3720 c3        1 BPC     -0.072100
     24 H1         -0.5190    0.0380   -0.9790 ha        1 BPC      0.135000
     25 H2          1.9690    0.0330   -1.0020 ha        1 BPC      0.134000
     26 H3          3.2500    0.0070    1.1330 ha        1 BPC      0.134000
     27 H4          3.2840   -0.0290    3.6030 ha        1 BPC      0.134000
     28 H5          2.0840   -0.0470    5.7620 ha        1 BPC      0.132000
     29 H8         -3.8330   -0.0140    4.9100 ha        1 BPC      0.157000
     30 H9         -3.8650    0.0070    2.4470 ha        1 BPC      0.137000
     31 H10        -2.6430    0.0250    0.2700 ha        1 BPC      0.135000
     32 H1'        -3.0520    1.1260    7.6110 h1        1 BPC      0.040700
     33 HA         -4.3800   -0.8290    8.0760 ho        1 BPC      0.422000
     34 H2'        -1.8980   -1.6670    8.3990 h1        1 BPC      0.099700
     35 HB         -2.6550    0.4910   10.0420 ho        1 BPC      0.418000
     36 H3'        -0.0810   -0.3300    9.5220 h1        1 BPC      0.090700
     37 HC         -1.0950    1.9690    8.2560 ho        1 BPC      0.408000
     38 H4'1        0.7040   -1.0220    7.4200 hc        1 BPC      0.070700
     39 H4'2        0.9340    0.7780    7.3550 hc        1 BPC      0.070700
@<TRIPOS>BOND
     1    1    2 ar  
     2    1   14 ar  
     3    1   24 1   
     4    2    3 ar  
     5    2   25 1   
     6    3    4 ar  
     7    3   26 1   
     8    4    5 ar  
     9    4   15 ar  
    10    5    6 ar  
    11    5   27 1   
    12    6    7 ar  
    13    6   28 1   
    14    7    8 ar  
    15    7   16 ar  
    16    8    9 ar  
    17    8   23 1   
    18    9   10 ar  
    19    9   17 1   
    20   10   11 ar  
    21   10   29 1   
    22   11   12 ar  
    23   11   16 ar  
    24   12   13 ar  
    25   12   30 1   
    26   13   14 ar  
    27   13   31 1   
    28   14   15 ar  
    29   15   16 ar  
    30   17   18 1   
    31   17   19 1   
    32   17   32 1   
    33   18   33 1   
    34   19   20 1   
    35   19   21 1   
    36   19   34 1   
    37   20   35 1   
    38   21   22 1   
    39   21   23 1   
    40   21   36 1   
    41   22   37 1   
    42   23   38 1   
    43   23   39 1   
@<TRIPOS>SUBSTRUCTURE
     1 BPC         1 TEMP              0 ****  ****    0 ROOT
