@<TRIPOS>MOLECULE
molecule
   39    43     1     0     0
SMALL
bcc


@<TRIPOS>ATOM
      1 C1           0.0000     0.0000     0.0000 ca         1 BPC      -0.113000
      2 C2           1.3820     0.0000     0.0000 ca         1 BPC      -0.127000
      3 C3           2.1060     0.0000     1.1760 ca         1 BPC      -0.114000
      4 C3A          1.4450    -0.0010     2.4060 ca         1 BPC      -0.031000
      5 C4           2.1490    -0.0020     3.6350 ca         1 BPC      -0.114000
      6 C5           1.4890    -0.0050     4.8160 ca         1 BPC      -0.117000
      7 C5A          0.0720    -0.0070     4.8550 ca         1 BPC      -0.035000
      8 C6          -0.6220    -0.0140     6.0760 ca         1 BPC      -0.042300
      9 C7          -1.9990    -0.0130     6.0820 ca         1 BPC      -0.073300
     10 C8          -2.7180    -0.0100     4.8920 ca         1 BPC      -0.085000
     11 C8A         -2.0660    -0.0070     3.6610 ca         1 BPC      -0.038000
     12 C9          -2.7740    -0.0040     2.4350 ca         1 BPC      -0.108000
     13 C10         -2.1150    -0.0010     1.2530 ca         1 BPC      -0.119000
     14 C1A         -0.7000    -0.0010     1.2100 ca         1 BPC      -0.029000
     15 C3B          0.0310    -0.0020     2.4180 ca         1 BPC      -0.016000
     16 C5B         -0.6540    -0.0050     3.6470 ca         1 BPC      -0.009000
     17 C1'         -2.7990    -0.0050     7.3620 c3         1 BPC       0.195400
     18 O1'         -3.9050    -0.9000     7.2310 oh         1 BPC      -0.605800
     19 C2'         -1.9340    -0.4450     8.5420 c3         1 BPC       0.128100
     20 O2'         -2.6450    -0.2370     9.7630 oh         1 BPC      -0.600800
     21 C3'         -0.6520     0.3960     8.5380 c3         1 BPC       0.134100
     22 O3'         -0.9840     1.7820     8.4260 oh         1 BPC      -0.591800
     23 C4'          0.1960    -0.0280     7.3410 c3         1 BPC      -0.054100
     24 H1          -0.5410     0.0000    -0.9380 ha         1 BPC       0.132000
     25 H2           1.9100     0.0000    -0.9460 ha         1 BPC       0.128000
     26 H3           3.1890     0.0000     1.1450 ha         1 BPC       0.132000
     27 H4           3.2330     0.0010     3.6300 ha         1 BPC       0.130000
     28 H5           2.0500    -0.0060     5.7420 ha         1 BPC       0.130000
     29 H8          -3.8010    -0.0090     4.9230 ha         1 BPC       0.140000
     30 H9          -3.8570    -0.0050     2.4420 ha         1 BPC       0.132000
     31 H10         -2.6780     0.0010     0.3280 ha         1 BPC       0.131000
     32 H1'         -3.1650     0.9970     7.5450 h1         1 BPC       0.074700
     33 HA          -4.6980    -0.4580     7.4850 ho         1 BPC       0.408000
     34 H2'         -1.6800    -1.4930     8.4360 h1         1 BPC       0.056700
     35 HB          -2.6200    -1.0250    10.2790 ho         1 BPC       0.404000
     36 H3'         -0.1010     0.2210     9.4540 h1         1 BPC       0.039700
     37 HC          -0.5120     2.2720     9.0780 ho         1 BPC       0.404000
     38 H4'1         0.5740    -1.0290     7.5090 hc         1 BPC       0.061200
     39 H4'2         1.0280     0.6590     7.2340 hc         1 BPC       0.061200
@<TRIPOS>BOND
     1     1     2 ar
     2     1    14 ar
     3     1    24 1
     4     2     3 ar
     5     2    25 1
     6     3     4 ar
     7     3    26 1
     8     4     5 ar
     9     4    15 ar
    10     5     6 ar
    11     5    27 1
    12     6     7 ar
    13     6    28 1
    14     7     8 ar
    15     7    16 ar
    16     8     9 ar
    17     8    23 1
    18     9    10 ar
    19     9    17 1
    20    10    11 ar
    21    10    29 1
    22    11    12 ar
    23    11    16 ar
    24    12    13 ar
    25    12    30 1
    26    13    14 ar
    27    13    31 1
    28    14    15 ar
    29    15    16 ar
    30    17    18 1
    31    17    19 1
    32    17    32 1
    33    18    33 1
    34    19    20 1
    35    19    21 1
    36    19    34 1
    37    20    35 1
    38    21    22 1
    39    21    23 1
    40    21    36 1
    41    22    37 1
    42    23    38 1
    43    23    39 1
@<TRIPOS>SUBSTRUCTURE
     1 BPC         1 TEMP              0 ****  ****    0 ROOT
