@<TRIPOS>MOLECULE
molecule
   40    43     1     0     0
SMALL
bcc


@<TRIPOS>ATOM
      1 F1           0.0000     0.0000     0.0000 f          1 BPD      -0.232633
      2 F2           1.8650     1.1400    -0.6610 f          1 BPD      -0.232633
      3 F3           1.8650    -1.1440    -0.6580 f          1 BPD      -0.232633
      4 O1           7.6060    -0.0030     4.4830 os         1 BPD      -0.250800
      5 O2           9.6200     1.2490     5.1440 o          1 BPD      -0.800550
      6 O3           9.8800     3.4320     4.8300 o          1 BPD      -0.800550
      7 O4           9.6230    -1.2590     5.1300 o          1 BPD      -0.800550
      8 O5           9.8750    -3.4420     4.8200 o          1 BPD      -0.800550
      9 N1           5.0950     0.0000     3.2400 na         1 BPD      -0.166200
     10 C1           1.3990     0.0000     0.0000 c3         1 BPD       0.672200
     11 C2           1.9010     0.0000     1.4200 ca         1 BPD      -0.192300
     12 C3           1.0020     0.0020     2.4700 ca         1 BPD      -0.111000
     13 C4           1.4580     0.0020     3.7760 ca         1 BPD      -0.145000
     14 C5           2.8150     0.0010     4.0350 ca         1 BPD      -0.095000
     15 C6           3.7220     0.0010     2.9820 ca         1 BPD       0.084800
     16 C7           3.2590     0.0060     1.6730 ca         1 BPD      -0.086000
     17 C8           5.8320     1.1900     3.3830 ca         1 BPD      -0.089600
     18 C9           5.3220     2.3860     2.9150 ca         1 BPD      -0.187500
     19 C10          6.0590     3.5540     3.0360 ca         1 BPD      -0.178500
     20 C11          7.3040     3.5220     3.6210 ca         1 BPD      -0.104500
     21 C12          7.8290     2.3200     4.1020 ca         1 BPD      -0.154900
     22 C13          7.0840     1.1300     3.9860 ca         1 BPD       0.323000
     23 C14          9.1640     2.2950     4.7250 c          1 BPD       0.853700
     24 C16          5.8330    -1.1890     3.3730 ca         1 BPD      -0.089600
     25 C17          5.3180    -2.3840     2.9070 ca         1 BPD      -0.187500
     26 C18          6.0530    -3.5540     3.0260 ca         1 BPD      -0.178500
     27 C19          7.3000    -3.5250     3.6110 ca         1 BPD      -0.104500
     28 C20          7.8270    -2.3240     4.0900 ca         1 BPD      -0.154900
     29 C21          7.0850    -1.1340     3.9790 ca         1 BPD       0.323000
     30 C22          9.1640    -2.3030     4.7140 c          1 BPD       0.853700
     31 H3          -0.0620     0.0020     2.2700 ha         1 BPD       0.128000
     32 H4           0.7510     0.0030     4.5960 ha         1 BPD       0.124000
     33 H5           3.1720     0.0010     5.0580 ha         1 BPD       0.156000
     34 H7           3.9630     0.0100     0.8490 ha         1 BPD       0.160000
     35 H9           4.3420     2.4120     2.4550 ha         1 BPD       0.102000
     36 H10          5.6580     4.4900     2.6650 ha         1 BPD       0.096000
     37 H11          7.8790     4.4360     3.7140 ha         1 BPD       0.151000
     38 H17          4.3380    -2.4070     2.4470 ha         1 BPD       0.102000
     39 H18          5.6490    -4.4880     2.6560 ha         1 BPD       0.096000
     40 H19          7.8720    -4.4400     3.7030 ha         1 BPD       0.151000
@<TRIPOS>BOND
     1     1    10 1
     2     2    10 1
     3     3    10 1
     4     4    22 1
     5     4    29 1
     6     5    23 1
     7     6    23 1
     8     7    30 1
     9     8    30 1
    10     9    15 1
    11     9    17 1
    12     9    24 1
    13    10    11 1
    14    11    12 ar
    15    11    16 ar
    16    12    13 ar
    17    12    31 1
    18    13    14 ar
    19    13    32 1
    20    14    15 ar
    21    14    33 1
    22    15    16 ar
    23    16    34 1
    24    17    18 ar
    25    17    22 ar
    26    18    19 ar
    27    18    35 1
    28    19    20 ar
    29    19    36 1
    30    20    21 ar
    31    20    37 1
    32    21    22 ar
    33    21    23 1
    34    24    25 ar
    35    24    29 ar
    36    25    26 ar
    37    25    38 1
    38    26    27 ar
    39    26    39 1
    40    27    28 ar
    41    27    40 1
    42    28    29 ar
    43    28    30 1
@<TRIPOS>SUBSTRUCTURE
     1 BPD         1 TEMP              0 ****  ****    0 ROOT
