@<TRIPOS>MOLECULE
BPF
   53    55     1     0     0
SMALL
bcc


@<TRIPOS>ATOM
      1 C1         -0.3450    0.0680   -0.0120 cc        1 BPF      0.049000
      2 C2          1.0500    0.1750   -0.1440 cc        1 BPF     -0.106500
      3 C3          1.8600    0.2670    0.9840 cd        1 BPF     -0.079000
      4 C4          1.2810    0.2420    2.2590 cd        1 BPF     -0.165000
      5 C5         -0.1080    0.1300    2.4040 cd        1 BPF     -0.079000
      6 C6         -0.9150    0.0470    1.2740 cc        1 BPF     -0.106500
      7 O1         -0.5920   -0.0380   -2.4310 os        1 BPF     -0.355800
      8 CA         -1.2020   -0.0200   -1.1660 cd        1 BPF      0.180700
      9 CB         -2.5830   -0.0920   -1.3050 cd        1 BPF     -0.200300
     10 CB'        -2.8590   -0.1580   -2.7140 cc        1 BPF     -0.200300
     11 CA'        -1.6340   -0.1230   -3.3690 cc        1 BPF      0.180700
     12 C7          2.1440    0.3380    3.4700 c2        1 BPF      0.485000
     13 N1          3.0500    1.3410    3.5320 nh        1 BPF     -0.806600
     14 N2          1.9850   -0.5810    4.4480 nh        1 BPF     -0.702000
     15 C8          2.7350   -0.6000    5.6910 c3        1 BPF      0.178800
     16 C9          2.3210   -1.7360    6.6090 c3        1 BPF     -0.122100
     17 C1'        -1.2760   -0.1610   -4.7640 cd        1 BPF      0.049000
     18 C2'         0.0690   -0.1570   -5.1740 cd        1 BPF     -0.106500
     19 C3'         0.3930   -0.2020   -6.5260 cc        1 BPF     -0.079000
     20 C4'        -0.6270   -0.2430   -7.4850 cc        1 BPF     -0.165000
     21 C5'        -1.9710   -0.2420   -7.0890 cc        1 BPF     -0.079000
     22 C6'        -2.2920   -0.2060   -5.7360 cd        1 BPF     -0.106500
     23 C7'        -0.2840   -0.2890   -8.9340 c2        1 BPF      0.485000
     24 N1'         0.6060   -1.2190   -9.3520 nh        1 BPF     -0.806600
     25 N2'        -0.8750    0.5980   -9.7640 nh        1 BPF     -0.702000
     26 C8'        -0.6580    0.6570  -11.1990 c3        1 BPF      0.178800
     27 C9'        -1.4780    1.7430  -11.8730 c3        1 BPF     -0.122100
     28 H2          1.5020    0.1880   -1.1500 ha        1 BPF      0.168500
     29 H3          2.9530    0.3400    0.8610 ha        1 BPF      0.155500
     30 H5         -0.5750    0.1250    3.4020 ha        1 BPF      0.155500
     31 H6         -2.0090   -0.0340    1.3900 ha        1 BPF      0.168500
     32 HB         -3.3310   -0.0980   -0.5130 ha        1 BPF      0.183000
     33 HB'        -3.8500   -0.2230   -3.1620 ha        1 BPF      0.183000
     34 HN1         3.0900    2.0020    2.7850 hn        1 BPF      0.480800
     35 H8          2.5770    0.3850    6.2230 h1        1 BPF      0.074200
     36 H91         2.9470   -1.6780    7.5360 hc        1 BPF      0.075033
     37 H92         1.2470   -1.6540    6.9060 hc        1 BPF      0.075033
     38 H93         2.4910   -2.7320    6.1330 hc        1 BPF      0.075033
     39 H2'         0.8680   -0.1180   -4.4160 ha        1 BPF      0.168500
     40 H3'         1.4530   -0.1870   -6.8290 ha        1 BPF      0.155500
     41 H5'        -2.7810   -0.2900   -7.8350 ha        1 BPF      0.155500
     42 H6'        -3.3500   -0.2130   -5.4260 ha        1 BPF      0.168500
     43 HN11        0.9780   -1.8630   -8.6870 hn        1 BPF      0.480800
     44 HN12        0.8870   -1.3070  -10.3040 hn        1 BPF      0.480800
     45 H8'1        0.4390    0.8490  -11.3890 h1        1 BPF      0.074200
     46 H8'2       -0.9280   -0.3450  -11.6460 h1        1 BPF      0.074200
     47 H9'1       -1.2190    2.7560  -11.4810 hc        1 BPF      0.075033
     48 H9'2       -2.5740    1.5720  -11.7400 hc        1 BPF      0.075033
     49 H9'3       -1.2500    1.7200  -12.9680 hc        1 BPF      0.075033
     50 H23         3.6650    1.4660    4.3070 hn        1 BPF      0.480800
     51 H24         1.3040   -1.3030    4.3030 hn        1 BPF      0.486800
     52 H25         3.8340   -0.7010    5.4470 h1        1 BPF      0.074200
     53 H26        -1.5050    1.2670   -9.3600 hn        1 BPF      0.486800
@<TRIPOS>BOND
     1    1    2 1   
     2    1    6 1   
     3    1    8 2   
     4    2    3 2   
     5    2   28 1   
     6    3    4 1   
     7    3   29 1   
     8    4    5 1   
     9    4   12 2   
    10    5    6 2   
    11    5   30 1   
    12    6   31 1   
    13    7    8 1   
    14    7   11 1   
    15    8    9 1   
    16    9   10 2   
    17    9   32 1   
    18   10   11 1   
    19   10   33 1   
    20   11   17 2   
    21   12   13 1   
    22   12   14 1   
    23   13   34 1   
    24   13   50 1   
    25   14   15 1   
    26   14   51 1   
    27   15   16 1   
    28   15   35 1   
    29   15   52 1   
    30   16   36 1   
    31   16   37 1   
    32   16   38 1   
    33   17   18 1   
    34   17   22 1   
    35   18   19 2   
    36   18   39 1   
    37   19   20 1   
    38   19   40 1   
    39   20   21 1   
    40   20   23 2   
    41   21   22 2   
    42   21   41 1   
    43   22   42 1   
    44   23   24 1   
    45   23   25 1   
    46   24   43 1   
    47   24   44 1   
    48   25   26 1   
    49   25   53 1   
    50   26   27 1   
    51   26   45 1   
    52   26   46 1   
    53   27   47 1   
    54   27   48 1   
    55   27   49 1   
@<TRIPOS>SUBSTRUCTURE
     1 BPF         1 TEMP              0 ****  ****    0 ROOT
