@<TRIPOS>MOLECULE
molecule
   39    41     1     0     0
SMALL
bcc


@<TRIPOS>ATOM
      1 C3'          0.0000     0.0000     0.0000 c3         1 BPG       0.143400
      2 O3'          1.4290     0.0000     0.0000 oh         1 BPG      -0.611800
      3 C2'         -0.5090     0.0000     1.4420 c3         1 BPG      -0.081400
      4 C12         -2.0400    -0.0010     1.4430 c3         1 BPG      -0.104400
      5 C1'         -2.5490    -0.0010     2.8850 c3         1 BPG       0.048300
      6 N9          -4.0140    -0.0010     2.8860 na         1 BPG      -0.186900
      7 C4          -4.8230     1.1020     2.8910 cc         1 BPG       0.116800
      8 N3          -4.6020     2.4210     2.8840 nc         1 BPG      -0.719100
      9 C2          -5.5980     3.2770     2.8860 cd         1 BPG       0.734800
     10 N2          -5.3210     4.6220     2.8870 nu         1 BPG      -0.729600
     11 N1          -6.8980     2.8700     2.8870 ns         1 BPG      -0.485400
     12 C6          -7.2000     1.5520     2.8870 c          1 BPG       0.641000
     13 O6          -8.3600     1.1770     2.8870 o          1 BPG      -0.607500
     14 C5          -6.1370     0.6190     2.8850 cd         1 BPG       0.179800
     15 N7          -6.0680    -0.7330     2.8850 nd         1 BPG      -0.619000
     16 C8          -4.8210    -1.1020     2.8860 cc         1 BPG       0.403400
     17 C04         -1.3860     5.9400     3.2380 ca         1 BPG      -0.140000
     18 C05         -2.2860     6.6540     2.4690 ca         1 BPG      -0.112500
     19 C06         -3.5910     6.2200     2.3500 ca         1 BPG      -0.139500
     20 C01         -4.0000     5.0650     3.0050 ca         1 BPG       0.154600
     21 C02         -3.0950     4.3540     3.7800 ca         1 BPG      -0.139500
     22 C03         -1.7900     4.7900     3.8910 ca         1 BPG      -0.112500
     23 H3'1        -0.3610     0.8850    -0.5110 h1         1 BPG       0.023200
     24 H3'2        -0.3610    -0.8850    -0.5110 h1         1 BPG       0.023200
     25 H3'          1.7440    -0.1990    -0.8660 ho         1 BPG       0.404000
     26 H2'1        -0.1470    -0.8840     1.9520 hc         1 BPG       0.055200
     27 H2'2        -0.1480     0.8850     1.9520 hc         1 BPG       0.055200
     28 H121        -2.4010     0.8830     0.9320 hc         1 BPG       0.058200
     29 H122        -2.4000    -0.8860     0.9330 hc         1 BPG       0.058200
     30 H1'1        -2.1880     0.8840     3.3950 h1         1 BPG       0.068200
     31 H1'2        -2.1880    -0.8850     3.3950 h1         1 BPG       0.068200
     32 HN21        -6.0660     5.2860     2.8020 hn         1 BPG       0.456800
     33 HN1         -7.6330     3.5490     2.8890 hn         1 BPG       0.335500
     34 H8          -4.4740    -2.1280     2.8860 h5         1 BPG       0.072100
     35 H051        -1.9660     7.5550     1.9590 ha         1 BPG       0.133500
     36 H061        -4.2960     6.7800     1.7480 ha         1 BPG       0.144500
     37 H021        -3.4100     3.4530     4.2930 ha         1 BPG       0.144500
     38 H031        -1.0830     4.2330     4.4940 ha         1 BPG       0.133500
     39 H041        -0.3620     6.2810     3.3280 ha         1 BPG       0.132000
@<TRIPOS>BOND
     1     1     2 1
     2     1     3 1
     3     1    23 1
     4     1    24 1
     5     2    25 1
     6     3     4 1
     7     3    26 1
     8     3    27 1
     9     4     5 1
    10     4    28 1
    11     4    29 1
    12     5     6 1
    13     5    30 1
    14     5    31 1
    15     6     7 1
    16     6    16 1
    17     7     8 1
    18     7    14 2
    19     8     9 2
    20     9    10 1
    21     9    11 1
    22    10    20 1
    23    10    32 1
    24    11    12 1
    25    11    33 1
    26    12    13 2
    27    12    14 1
    28    14    15 1
    29    15    16 2
    30    16    34 1
    31    17    18 ar
    32    17    22 ar
    33    17    39 1
    34    18    19 ar
    35    18    35 1
    36    19    20 ar
    37    19    36 1
    38    20    21 ar
    39    21    22 ar
    40    21    37 1
    41    22    38 1
@<TRIPOS>SUBSTRUCTURE
     1 BPG         1 TEMP              0 ****  ****    0 ROOT
