@<TRIPOS>MOLECULE
BPI
   37    40     1     0     0
SMALL
bcc


@<TRIPOS>ATOM
      1 C1          0.0170    0.0920    0.1940 c3        1 BPI     -0.074100
      2 C2          1.4760   -0.2850   -0.0710 c3        1 BPI      0.114100
      3 O2          2.1590    0.7520   -0.7630 oh        1 BPI     -0.613800
      4 C3          2.2680   -0.5410    1.2200 c3        1 BPI      0.119100
      5 O3          2.9390    0.6140    1.6970 oh        1 BPI     -0.610800
      6 C4          1.3560   -0.9790    2.3900 c3        1 BPI      0.190400
      7 O4          2.0750   -1.8700    3.2320 oh        1 BPI     -0.598800
      8 C5         -0.3510   -2.8340    2.5200 ca        1 BPI     -0.094000
      9 C6         -1.5180   -3.4190    2.0740 ca        1 BPI     -0.124000
     10 C7         -3.4770   -3.4460    0.5850 ca        1 BPI     -0.115000
     11 C8         -4.2580   -2.8580   -0.3540 ca        1 BPI     -0.117000
     12 C9         -4.9120   -0.8540   -1.6340 ca        1 BPI     -0.118000
     13 C10        -4.7740    0.4910   -1.9130 ca        1 BPI     -0.127000
     14 C11        -3.7510    1.2260   -1.2900 ca        1 BPI     -0.130000
     15 C12        -2.8470    0.5980   -0.4540 ca        1 BPI     -0.126000
     16 C13        -0.6580   -1.0110    0.9320 ca        1 BPI     -0.065300
     17 C14         0.0920   -1.6370    1.9310 ca        1 BPI     -0.080300
     18 C15        -2.3140   -2.7790    1.1010 ca        1 BPI     -0.034000
     19 C16        -1.9460   -1.5040    0.5980 ca        1 BPI     -0.013000
     20 C17        -2.9080   -0.7960   -0.2240 ca        1 BPI     -0.019000
     21 C18        -4.0120   -1.5040   -0.7610 ca        1 BPI     -0.036000
     22 H11A       -0.0140    1.0440    0.7870 hc        1 BPI      0.066700
     23 H12A       -0.4750    0.2720   -0.7990 hc        1 BPI      0.066700
     24 H2          1.5030   -1.2200   -0.7020 h1        1 BPI      0.052700
     25 HO2         1.6020    1.0150   -1.5040 ho        1 BPI      0.415000
     26 H3          3.0320   -1.3460    1.0190 h1        1 BPI      0.056700
     27 HO3         3.3970    1.0210    0.9500 ho        1 BPI      0.430000
     28 H4          1.0770   -0.0550    2.9820 h1        1 BPI      0.068700
     29 HO4         2.8390   -1.3730    3.5520 ho        1 BPI      0.417000
     30 H5          0.2570   -3.3040    3.3090 ha        1 BPI      0.159000
     31 H6         -1.8410   -4.3920    2.4740 ha        1 BPI      0.136000
     32 H7         -3.6970   -4.4580    0.9590 ha        1 BPI      0.135000
     33 H8         -5.1180   -3.3840   -0.7960 ha        1 BPI      0.135000
     34 H9         -5.7370   -1.4340   -2.0760 ha        1 BPI      0.134000
     35 H10        -5.4710    0.9970   -2.5970 ha        1 BPI      0.134000
     36 H11        -3.6820    2.3110   -1.4610 ha        1 BPI      0.133000
     37 H12        -2.1040    1.2100    0.0780 ha        1 BPI      0.136000
@<TRIPOS>BOND
     1    1    2 1   
     2    1   16 1   
     3    1   22 1   
     4    1   23 1   
     5    2    3 1   
     6    2    4 1   
     7    2   24 1   
     8    3   25 1   
     9    4    5 1   
    10    4    6 1   
    11    4   26 1   
    12    5   27 1   
    13    6    7 1   
    14    6   17 1   
    15    6   28 1   
    16    7   29 1   
    17    8    9 ar  
    18    8   17 ar  
    19    8   30 1   
    20    9   18 ar  
    21    9   31 1   
    22   10   11 ar  
    23   10   18 ar  
    24   10   32 1   
    25   11   21 ar  
    26   11   33 1   
    27   12   13 ar  
    28   12   21 ar  
    29   12   34 1   
    30   13   14 ar  
    31   13   35 1   
    32   14   15 ar  
    33   14   36 1   
    34   15   20 ar  
    35   15   37 1   
    36   16   17 ar  
    37   16   19 ar  
    38   18   19 ar  
    39   19   20 ar  
    40   20   21 ar  
@<TRIPOS>SUBSTRUCTURE
     1 BPI         1 TEMP              0 ****  ****    0 ROOT
