@<TRIPOS>MOLECULE
molecule
   37    40     1     0     0
SMALL
bcc


@<TRIPOS>ATOM
      1 C1           0.0000     0.0000     0.0000 c3         1 BPI      -0.056100
      2 C2           1.5280     0.0000     0.0000 c3         1 BPI       0.145100
      3 O2           2.0120     1.1720    -0.6600 oh         1 BPI      -0.601800
      4 C3           1.9840     0.0000     1.4610 c3         1 BPI       0.127100
      5 O3           1.3220     1.0400     2.1830 oh         1 BPI      -0.586800
      6 C4           1.6210    -1.3580     2.0490 c3         1 BPI       0.178400
      7 O4           2.5010    -2.3490     1.5130 oh         1 BPI      -0.600800
      8 C5          -0.3150    -2.8230     2.4960 ca         1 BPI      -0.110000
      9 C6          -1.5750    -3.2790     2.2840 ca         1 BPI      -0.124000
     10 C7          -3.6720    -3.1740     1.0620 ca         1 BPI      -0.119000
     11 C8          -4.4830    -2.6000     0.1580 ca         1 BPI      -0.112000
     12 C9          -4.9570    -0.8650    -1.4790 ca         1 BPI      -0.117000
     13 C10         -4.6150     0.2940    -2.1090 ca         1 BPI      -0.128000
     14 C11         -3.4190     0.9270    -1.8020 ca         1 BPI      -0.124000
     15 C12         -2.5540     0.3890    -0.8890 ca         1 BPI      -0.138000
     16 C13         -0.5720    -1.1260     0.8180 ca         1 BPI      -0.025300
     17 C14          0.1970    -1.7570     1.7540 ca         1 BPI      -0.083300
     18 C15         -2.3840    -2.6530     1.3270 ca         1 BPI      -0.026000
     19 C16         -1.9050    -1.5130     0.6330 ca         1 BPI      -0.020000
     20 C17         -2.8380    -0.8230    -0.2640 ca         1 BPI      -0.015000
     21 C18         -4.0930    -1.4280    -0.5300 ca         1 BPI      -0.038000
     22 H11A        -0.3490    -0.0970    -1.0210 hc         1 BPI       0.075700
     23 H12A        -0.3490     0.9410     0.4080 hc         1 BPI       0.075700
     24 H2           1.8950    -0.8890    -0.4990 h1         1 BPI       0.061700
     25 HO2          2.5090     0.9210    -1.4210 ho         1 BPI       0.402000
     26 H3           3.0570     0.1420     1.5070 h1         1 BPI       0.045700
     27 HO3          1.9550     1.5290     2.6810 ho         1 BPI       0.404000
     28 H4           1.7520    -1.3150     3.1230 h1         1 BPI       0.043700
     29 HO4          3.0730    -2.6620     2.1940 ho         1 BPI       0.402000
     30 H5           0.3030    -3.2930     3.2510 ha         1 BPI       0.125000
     31 H6          -1.9950    -4.0350     2.9370 ha         1 BPI       0.133000
     32 H7          -4.0100    -4.0520     1.5990 ha         1 BPI       0.130000
     33 H8          -5.4500    -3.0430    -0.0480 ha         1 BPI       0.130000
     34 H9          -5.8910    -1.3570    -1.7200 ha         1 BPI       0.131000
     35 H10         -5.2890     0.7340    -2.8340 ha         1 BPI       0.129000
     36 H11         -3.1570     1.8480    -2.3080 ha         1 BPI       0.130000
     37 H12         -1.6260     0.9010    -0.6660 ha         1 BPI       0.156000
@<TRIPOS>BOND
     1     1     2 1
     2     1    16 1
     3     1    22 1
     4     1    23 1
     5     2     3 1
     6     2     4 1
     7     2    24 1
     8     3    25 1
     9     4     5 1
    10     4     6 1
    11     4    26 1
    12     5    27 1
    13     6     7 1
    14     6    17 1
    15     6    28 1
    16     7    29 1
    17     8     9 ar
    18     8    17 ar
    19     8    30 1
    20     9    18 ar
    21     9    31 1
    22    10    11 ar
    23    10    18 ar
    24    10    32 1
    25    11    21 ar
    26    11    33 1
    27    12    13 ar
    28    12    21 ar
    29    12    34 1
    30    13    14 ar
    31    13    35 1
    32    14    15 ar
    33    14    36 1
    34    15    20 ar
    35    15    37 1
    36    16    17 ar
    37    16    19 ar
    38    18    19 ar
    39    19    20 ar
    40    20    21 ar
@<TRIPOS>SUBSTRUCTURE
     1 BPI         1 TEMP              0 ****  ****    0 ROOT
