@<TRIPOS>MOLECULE
BPJ
   37    40     1     0     0
SMALL
bcc


@<TRIPOS>ATOM
      1 C1          0.0270    0.0890    0.0930 c3        1 BPJ     -0.075100
      2 C2          1.5480    0.0860    0.0580 c3        1 BPJ      0.111100
      3 O2          2.0910   -0.9290   -0.7690 oh        1 BPJ     -0.597800
      4 C3          2.0910   -0.0330    1.4850 c3        1 BPJ      0.073100
      5 O3          3.5030    0.0310    1.5190 oh        1 BPJ     -0.598800
      6 C4          1.6240   -1.3550    2.1140 c3        1 BPJ      0.160400
      7 O4          1.8090   -1.3220    3.5240 oh        1 BPJ     -0.591800
      8 C5         -0.3400   -2.7790    2.5520 ca        1 BPJ     -0.099000
      9 C6         -1.5760   -3.2850    2.2240 ca        1 BPJ     -0.125000
     10 C7         -3.5430   -3.3300    0.7650 ca        1 BPJ     -0.119000
     11 C8         -4.2860   -2.8070   -0.2400 ca        1 BPJ     -0.114000
     12 C9         -4.8250   -0.9340   -1.7370 ca        1 BPJ     -0.118000
     13 C10        -4.6390    0.3690   -2.1500 ca        1 BPJ     -0.125000
     14 C11        -3.6120    1.1320   -1.5710 ca        1 BPJ     -0.129000
     15 C12        -2.7490    0.5640   -0.6510 ca        1 BPJ     -0.127000
     16 C13        -0.5780   -1.0310    0.8690 ca        1 BPJ     -0.060300
     17 C14         0.1860   -1.6860    1.8330 ca        1 BPJ     -0.087300
     18 C15        -2.3450   -2.6750    1.2090 ca        1 BPJ     -0.031000
     19 C16        -1.9100   -1.4700    0.6000 ca        1 BPJ     -0.014000
     20 C17        -2.8450   -0.7990   -0.2870 ca        1 BPJ     -0.016000
     21 C18        -3.9670   -1.5160   -0.7770 ca        1 BPJ     -0.038000
     22 H11A       -0.2790    1.0650    0.5640 hc        1 BPJ      0.073700
     23 H12A       -0.3450    0.0620   -0.9680 hc        1 BPJ      0.073700
     24 H2          1.9270    1.0410   -0.4100 h1        1 BPJ      0.090700
     25 HO2         1.6310   -1.7520   -0.5570 ho        1 BPJ      0.410000
     26 H3          1.7470    0.8370    2.1100 h1        1 BPJ      0.096700
     27 HO3         3.8340   -0.5140    0.7910 ho        1 BPJ      0.417000
     28 H4          2.2620   -2.1910    1.6930 h1        1 BPJ      0.041700
     29 HO4         2.6980   -0.9670    3.6690 ho        1 BPJ      0.418000
     30 H5          0.2650   -3.2250    3.3580 ha        1 BPJ      0.154000
     31 H6         -1.9730   -4.1740    2.7370 ha        1 BPJ      0.138000
     32 H7         -3.8160   -4.2830    1.2430 ha        1 BPJ      0.136000
     33 H8         -5.1680   -3.3330   -0.6380 ha        1 BPJ      0.136000
     34 H9         -5.6570   -1.5330   -2.1380 ha        1 BPJ      0.134000
     35 H10        -5.2990    0.8210   -2.9040 ha        1 BPJ      0.135000
     36 H11        -3.5060    2.1930   -1.8430 ha        1 BPJ      0.133000
     37 H12        -2.0210    1.2240   -0.1610 ha        1 BPJ      0.135000
@<TRIPOS>BOND
     1    1    2 1   
     2    1   16 1   
     3    1   22 1   
     4    1   23 1   
     5    2    3 1   
     6    2    4 1   
     7    2   24 1   
     8    3   25 1   
     9    4    5 1   
    10    4    6 1   
    11    4   26 1   
    12    5   27 1   
    13    6    7 1   
    14    6   17 1   
    15    6   28 1   
    16    7   29 1   
    17    8    9 ar  
    18    8   17 ar  
    19    8   30 1   
    20    9   18 ar  
    21    9   31 1   
    22   10   11 ar  
    23   10   18 ar  
    24   10   32 1   
    25   11   21 ar  
    26   11   33 1   
    27   12   13 ar  
    28   12   21 ar  
    29   12   34 1   
    30   13   14 ar  
    31   13   35 1   
    32   14   15 ar  
    33   14   36 1   
    34   15   20 ar  
    35   15   37 1   
    36   16   17 ar  
    37   16   19 ar  
    38   18   19 ar  
    39   19   20 ar  
    40   20   21 ar  
@<TRIPOS>SUBSTRUCTURE
     1 BPJ         1 TEMP              0 ****  ****    0 ROOT
