@<TRIPOS>MOLECULE
molecule
   37    40     1     0     0
SMALL
bcc


@<TRIPOS>ATOM
      1 C1           0.0000     0.0000     0.0000 c3         1 BPJ      -0.062100
      2 C2           1.5290     0.0000     0.0000 c3         1 BPJ       0.134100
      3 O2           2.0180    -1.1650    -0.6660 oh         1 BPJ      -0.588800
      4 C3           1.9750     0.0000     1.4640 c3         1 BPJ       0.127100
      5 O3           3.3870     0.2080     1.5430 oh         1 BPJ      -0.601800
      6 C4           1.6160    -1.3590     2.0520 c3         1 BPJ       0.193400
      7 O4           1.7670    -1.3020     3.4740 oh         1 BPJ      -0.608800
      8 C5          -0.2980    -2.8730     2.4410 ca         1 BPJ      -0.103000
      9 C6          -1.5440    -3.3530     2.1970 ca         1 BPJ      -0.122000
     10 C7          -3.6160    -3.2730     0.9290 ca         1 BPJ      -0.113000
     11 C8          -4.4280    -2.6870     0.0320 ca         1 BPJ      -0.118000
     12 C9          -4.9330    -0.8910    -1.5300 ca         1 BPJ      -0.114000
     13 C10         -4.6140     0.3020    -2.1050 ca         1 BPJ      -0.128000
     14 C11         -3.4330     0.9480    -1.7630 ca         1 BPJ      -0.125000
     15 C12         -2.5630     0.3900    -0.8660 ca         1 BPJ      -0.140000
     16 C13         -0.5610    -1.1500     0.7920 ca         1 BPJ      -0.043300
     17 C14          0.2060    -1.7820     1.7290 ca         1 BPJ      -0.066300
     18 C15         -2.3500    -2.7240     1.2400 ca         1 BPJ      -0.031000
     19 C16         -1.8870    -1.5550     0.5870 ca         1 BPJ      -0.018000
     20 C17         -2.8260    -0.8530    -0.2950 ca         1 BPJ      -0.016000
     21 C18         -4.0630    -1.4750    -0.5990 ca         1 BPJ      -0.035000
     22 H11A        -0.3510     0.9290     0.4330 hc         1 BPJ       0.065200
     23 H12A        -0.3510    -0.0730    -1.0220 hc         1 BPJ       0.065200
     24 H2           1.8950     0.8920    -0.4930 h1         1 BPJ       0.040700
     25 HO2          2.4270    -0.9140    -1.4780 ho         1 BPJ       0.405000
     26 H3           1.4530     0.7810     2.0040 h1         1 BPJ       0.057700
     27 HO3          3.5600     1.0400     1.9510 ho         1 BPJ       0.404000
     28 H4           2.2990    -2.1000     1.6540 h1         1 BPJ       0.072700
     29 HO4          2.5300    -1.7940     3.7300 ho         1 BPJ       0.407000
     30 H5           0.3160    -3.3450     3.1990 ha         1 BPJ       0.135000
     31 H6          -1.9590    -4.1290     2.8280 ha         1 BPJ       0.134000
     32 H7          -3.9360    -4.1820     1.4230 ha         1 BPJ       0.131000
     33 H8          -5.3770    -3.1510    -0.2120 ha         1 BPJ       0.130000
     34 H9          -5.8540    -1.3930    -1.7980 ha         1 BPJ       0.132000
     35 H10         -5.2920     0.7570    -2.8170 ha         1 BPJ       0.129000
     36 H11         -3.1890     1.8960    -2.2270 ha         1 BPJ       0.127000
     37 H12         -1.6480     0.9120    -0.6140 ha         1 BPJ       0.143000
@<TRIPOS>BOND
     1     1     2 1
     2     1    16 1
     3     1    22 1
     4     1    23 1
     5     2     3 1
     6     2     4 1
     7     2    24 1
     8     3    25 1
     9     4     5 1
    10     4     6 1
    11     4    26 1
    12     5    27 1
    13     6     7 1
    14     6    17 1
    15     6    28 1
    16     7    29 1
    17     8     9 ar
    18     8    17 ar
    19     8    30 1
    20     9    18 ar
    21     9    31 1
    22    10    11 ar
    23    10    18 ar
    24    10    32 1
    25    11    21 ar
    26    11    33 1
    27    12    13 ar
    28    12    21 ar
    29    12    34 1
    30    13    14 ar
    31    13    35 1
    32    14    15 ar
    33    14    36 1
    34    15    20 ar
    35    15    37 1
    36    16    17 ar
    37    16    19 ar
    38    18    19 ar
    39    19    20 ar
    40    20    21 ar
@<TRIPOS>SUBSTRUCTURE
     1 BPJ         1 TEMP              0 ****  ****    0 ROOT
