@<TRIPOS>MOLECULE
BPK
   39    37     1     0     0
SMALL
bcc


@<TRIPOS>ATOM
      1 C5         -0.5820   -0.8200   -1.3220 c2        1 BPK     -0.136000
      2 C4         -0.0540   -0.4930   -0.1760 c1        1 BPK     -0.109000
      3 C6          0.4520   -0.1730    0.9350 c1        1 BPK     -0.120000
      4 C19         4.2860    1.0150    9.6870 c1        1 BPK      0.155000
      5 C3          2.9360   -1.2680    2.0190 c2        1 BPK     -0.154000
      6 C7          0.9450    0.1880    2.0960 c2        1 BPK     -0.043000
      7 C18         3.6080    1.3790   10.7560 c2        1 BPK     -0.316000
      8 C20         0.4560    2.0110    9.4360 c2        1 BPK     -0.411000
      9 C16        -0.6870    4.2140    9.7720 c3        1 BPK     -0.185000
     10 C2          2.1820   -0.3490    2.6480 c2        1 BPK     -0.017000
     11 C17         3.9610    1.3010   12.0980 c1        1 BPK     -0.131000
     12 C15         0.1560    3.2520    9.0120 c2        1 BPK      0.092000
     13 C9          2.8780    1.1530    5.9060 c2        1 BPK     -0.228000
     14 C10         3.9770    0.2690    5.6950 c2        1 BPK      0.105000
     15 C1          2.5750    0.1740    3.9530 c2        1 BPK      0.031000
     16 C13         2.6310    1.9800    7.0020 c1        1 BPK     -0.065000
     17 N8          2.0240    1.0520    4.7730 n2        1 BPK     -0.052000
     18 O11         3.8070   -0.3530    4.4850 os        1 BPK     -0.130000
     19 O22         4.6630    1.1170   14.5070 oh        1 BPK     -0.139000
     20 O14         0.5910    3.7840    7.8320 oh        1 BPK     -0.308000
     21 H5         -1.5220   -0.3740   -1.6790 ha        1 BPK      0.135000
     22 H4          2.6470   -1.6670    1.0360 ha        1 BPK      0.134500
     23 H6         -0.1160   -1.5570   -1.9920 ha        1 BPK      0.135000
     24 H19         0.0750    1.6160   10.3820 ha        1 BPK      0.114000
     25 H3          3.8660   -1.6640    2.4470 ha        1 BPK      0.134500
     26 H7          0.4040    0.9390    2.7040 ha        1 BPK      0.172000
     27 H18         2.5890    1.8170   10.5490 ha        1 BPK      0.233000
     28 H20         1.0530    1.3230    8.8270 ha        1 BPK      0.114000
     29 H16        -1.0100    3.7700   10.7440 hc        1 BPK      0.090000
     30 H12         5.0040    0.2430    7.5570 hc        1 BPK      0.133000
     31 H12A        6.0490    0.4900    6.0800 hc        1 BPK      0.133000
     32 H12B        5.3780   -1.1590    6.4370 hc        1 BPK      0.133000
     33 H21        -0.1130    5.1530    9.9680 hc        1 BPK      0.090000
     34 H21A       -1.5930    4.4780    9.1710 hc        1 BPK      0.090000
     35 H13         1.1880    3.1310    7.3750 ho        1 BPK      0.280000
     36 H13A        3.3910    1.9530    7.8020 ha        1 BPK      0.060000
     37 HO22        3.9930    1.5700   15.0560 ho        1 BPK      0.233000
     38 C12         5.1610   -0.0620    6.4860 c3        1 BPK     -0.213000
     39 C21         4.2510    1.2400   13.2560 c1        1 BPK     -0.040000
@<TRIPOS>BOND
     1    1    2 1   
     2    1   21 1   
     3    1   23 1   
     4    2    3 1   
     5    3    6 1   
     6    4    7 1   
     7    5   10 1   
     8    5   22 1   
     9    5   25 1   
    10    6   10 1   
    11    6   26 1   
    12    7   11 1   
    13    7   27 1   
    14    8   12 1   
    15    8   24 1   
    16    8   28 1   
    17    9   12 1   
    18    9   29 1   
    19    9   33 1   
    20    9   34 1   
    21   10   15 1   
    22   11   39 1   
    23   12   20 1   
    24   13   14 1   
    25   13   16 1   
    26   13   17 1   
    27   14   18 1   
    28   14   38 1   
    29   15   17 1   
    30   15   18 1   
    31   16   36 1   
    32   19   37 1   
    33   19   39 1   
    34   20   35 1   
    35   30   38 1   
    36   31   38 1   
    37   32   38 1   
@<TRIPOS>SUBSTRUCTURE
     1 BPK         1 TEMP              0 ****  ****    0 ROOT
