@<TRIPOS>MOLECULE
BPL
   41    45     1     0     0
SMALL
bcc


@<TRIPOS>ATOM
      1 C1           0.0000     0.0000     0.0000 ca         1 BPL      -0.084000
      2 C2           1.3790     0.0000     0.0000 ca         1 BPL      -0.103000
      3 C3           2.1020     0.0000     1.1800 ca         1 BPL      -0.085000
      4 C4           1.4400     0.0010     2.4080 ca         1 BPL      -0.034000
      5 C5           0.0270     0.0020     2.4210 ca         1 BPL      -0.010000
      6 C6          -0.6590     0.0010     3.6490 ca         1 BPL      -0.001000
      7 C7           0.0960     0.0060     4.9010 ca         1 BPL      -0.039000
      8 C8          -0.5880    -0.0010     6.1140 ca         1 BPL      -0.038400
      9 C9          -1.9980    -0.0020     6.1460 ca         1 BPL      -0.021000
     10 C10         -2.7540    -0.0010     4.9490 ca         1 BPL      -0.004000
     11 C11         -2.0650    -0.0000     3.6590 ca         1 BPL      -0.018000
     12 C12         -2.7710    -0.0010     2.4420 ca         1 BPL      -0.091000
     13 C13         -2.1130    -0.0000     1.2550 ca         1 BPL      -0.088000
     14 C14         -0.7020    -0.0000     1.2110 ca         1 BPL      -0.032000
     15 C15          2.1700     0.0020     3.6730 ca         1 BPL      -0.075000
     16 C16          1.5130     0.0020     4.8540 ca         1 BPL      -0.099000
     17 C17         -2.6750    -0.0040     7.3790 ca         1 BPL      -0.070000
     18 C18         -4.0370    -0.0040     7.4060 ca         1 BPL      -0.102000
     19 C19         -4.7750    -0.0040     6.2260 ca         1 BPL      -0.089000
     20 C20         -4.1520    -0.0020     5.0140 ca         1 BPL      -0.105000
     21 N21          0.1270    -0.0020     7.3070 ns         1 BPL      -0.075100
     22 C22         -0.0270    -1.0130     8.1840 c          1 BPL       0.562100
     23 O23         -0.7900    -1.9250     7.9330 o          1 BPL      -0.680100
     24 N24          0.6670    -1.0150     9.3400 ns         1 BPL      -0.222900
     25 C25          0.4990    -2.1140    10.2940 c3         1 BPL       0.103300
     26 H1          -0.5410     0.0000    -0.9390 ha         1 BPL       0.105000
     27 H2           1.9080    -0.0000    -0.9450 ha         1 BPL       0.101000
     28 H3           3.1850    -0.0000     1.1500 ha         1 BPL       0.104000
     29 H12         -3.8540    -0.0030     2.4530 ha         1 BPL       0.110000
     30 H13         -2.6770     0.0000     0.3300 ha         1 BPL       0.104000
     31 H15          3.2530     0.0030     3.6640 ha         1 BPL       0.103000
     32 H16          2.0770    -0.0010     5.7790 ha         1 BPL       0.100000
     33 H17         -2.1150    -0.0040     8.3060 ha         1 BPL       0.111000
     34 H18         -4.5520    -0.0060     8.3590 ha         1 BPL       0.101000
     35 H19         -5.8570    -0.0050     6.2720 ha         1 BPL       0.099000
     36 H20         -4.7380    -0.0020     4.1020 ha         1 BPL       0.110000
     37 H21          0.7330     0.7630     7.5270 hn         1 BPL       0.163500
     38 H24          1.3000    -0.2670     9.5440 hn         1 BPL       0.162500
     39 H26          0.6800    -3.0580     9.7930 h1         1 BPL       0.008367
     40 H27          1.2050    -1.9960    11.1080 h1         1 BPL       0.008367
     41 H28         -0.5100    -2.1010    10.6860 h1         1 BPL       0.008367
@<TRIPOS>BOND
     1     1     2 ar  
     2     1    14 ar  
     3     1    26 1   
     4     2     3 ar  
     5     2    27 1   
     6     3     4 ar  
     7     3    28 1   
     8     4     5 ar  
     9     4    15 ar  
    10     5     6 ar  
    11     5    14 ar  
    12     6     7 ar  
    13     6    11 ar  
    14     7     8 ar  
    15     7    16 ar  
    16     8     9 ar  
    17     8    21 1   
    18     9    10 ar  
    19     9    17 ar  
    20    10    11 ar  
    21    10    20 ar  
    22    11    12 ar  
    23    12    13 ar  
    24    12    29 1   
    25    13    14 ar  
    26    13    30 1   
    27    15    16 ar  
    28    15    31 1   
    29    16    32 1   
    30    17    18 ar  
    31    17    33 1   
    32    18    19 ar  
    33    18    34 1   
    34    19    20 ar  
    35    19    35 1   
    36    20    36 1   
    37    21    22 1   
    38    21    37 1   
    39    22    23 2   
    40    22    24 1   
    41    24    25 1   
    42    24    38 1   
    43    25    39 1   
    44    25    40 1   
    45    25    41 1   
@<TRIPOS>SUBSTRUCTURE
     1 BPL         1 TEMP              0 ****  ****    0 ROOT
