@<TRIPOS>MOLECULE
molecule
   33    34     1     0     0
SMALL
bcc


@<TRIPOS>ATOM
      1 C0           0.0000     0.0000     0.0000 c3         1 BPM       0.032200
      2 C1A          1.5070     0.0000     0.0000 ca         1 BPM      -0.131300
      3 C2A          2.1960     0.0000     1.1980 ca         1 BPM      -0.124000
      4 C3A          3.5780     0.0000     1.2020 ca         1 BPM      -0.160000
      5 C5A          3.5790    -0.0070    -1.2000 ca         1 BPM      -0.160000
      6 C6A          2.1980    -0.0070    -1.1980 ca         1 BPM      -0.124000
      7 C4A          4.2730    -0.0010     0.0020 ca         1 BPM       0.223600
      8 O1A          5.6320    -0.0000     0.0010 os         1 BPM      -0.461500
      9 PA           6.2870    -1.4710     0.0020 p5         1 BPM       1.160900
     10 O2A          5.7570    -2.2460     1.1470 o          1 BPM      -0.905833
     11 O3A          5.9200    -2.2230    -1.3720 o          1 BPM      -0.905833
     12 O4A          7.8860    -1.3460     0.1350 o          1 BPM      -0.905833
     13 C1B         -0.5020     1.4210    -0.0010 ca         1 BPM      -0.131300
     14 C2B         -0.7320     2.0710    -1.2000 ca         1 BPM      -0.124000
     15 C3B         -1.1920     3.3740    -1.2030 ca         1 BPM      -0.160000
     16 C5B         -1.1980     3.3730     1.1990 ca         1 BPM      -0.160000
     17 C6B         -0.7380     2.0700     1.1970 ca         1 BPM      -0.124000
     18 C4B         -1.4240     4.0290    -0.0020 ca         1 BPM       0.223600
     19 O1B         -1.8760     5.3110    -0.0030 os         1 BPM      -0.461500
     20 PB          -3.4810     5.4380    -0.0040 p5         1 BPM       1.160900
     21 O2B         -4.0360     4.6790    -1.1470 o          1 BPM      -0.905833
     22 O3B         -4.0670     4.8430     1.3710 o          1 BPM      -0.905833
     23 O4B         -3.8950     6.9880    -0.1380 o          1 BPM      -0.905833
     24 HC01        -0.3610    -0.5110    -0.8840 hc         1 BPM       0.020700
     25 HC02        -0.3610    -0.5100     0.8850 hc         1 BPM       0.020700
     26 H2A          1.6530     0.0010     2.1360 ha         1 BPM       0.095000
     27 H3A          4.1180     0.0030     2.1410 ha         1 BPM       0.133000
     28 H5A          4.1190    -0.0100    -2.1390 ha         1 BPM       0.133000
     29 H6A          1.6550    -0.0120    -2.1350 ha         1 BPM       0.095000
     30 H2B         -0.5500     1.5580    -2.1360 ha         1 BPM       0.095000
     31 H3B         -1.3700     3.8830    -2.1430 ha         1 BPM       0.133000
     32 H5B         -1.3810     3.8820     2.1380 ha         1 BPM       0.133000
     33 H6B         -0.5620     1.5570     2.1340 ha         1 BPM       0.095000
@<TRIPOS>BOND
     1     1     2 1
     2     1    13 1
     3     1    24 1
     4     1    25 1
     5     2     3 ar
     6     2     6 ar
     7     3     4 ar
     8     3    26 1
     9     4     7 ar
    10     4    27 1
    11     5     6 ar
    12     5     7 ar
    13     5    28 1
    14     6    29 1
    15     7     8 1
    16     8     9 1
    17     9    10 1
    18     9    11 1
    19     9    12 1
    20    13    14 ar
    21    13    17 ar
    22    14    15 ar
    23    14    30 1
    24    15    18 ar
    25    15    31 1
    26    16    17 ar
    27    16    18 ar
    28    16    32 1
    29    17    33 1
    30    18    19 1
    31    19    20 1
    32    20    21 1
    33    20    22 1
    34    20    23 1
@<TRIPOS>SUBSTRUCTURE
     1 BPM         1 TEMP              0 ****  ****    0 ROOT
