@<TRIPOS>MOLECULE
BPM
   33    34     1     0     0
SMALL
bcc


@<TRIPOS>ATOM
      1 C0          0.1840    0.2630    0.0080 c3        1 BPM      0.077200
      2 C1A         1.6630    0.1110   -0.0670 ca        1 BPM     -0.212300
      3 C2A         2.5720    0.9750    0.5500 ca        1 BPM     -0.091000
      4 C3A         3.9330    0.7060    0.5620 ca        1 BPM     -0.288500
      5 C5A         3.5390   -1.3240   -0.7040 ca        1 BPM     -0.288500
      6 C6A         2.1890   -1.0300   -0.7010 ca        1 BPM     -0.091000
      7 C4A         4.4750   -0.4660   -0.0500 ca        1 BPM      0.337100
      8 O1A         5.7650   -0.6630    0.0020 os        1 BPM     -0.452500
      9 PA          6.9690   -2.0110   -0.3010 p5        1 BPM      1.340900
     10 O2A         7.2760   -2.4400    1.0990 o         1 BPM     -0.911833
     11 O3A         6.1670   -2.9660   -1.1300 o         1 BPM     -0.911833
     12 O4A         8.0450   -1.2500   -1.0100 o         1 BPM     -0.911833
     13 C1B        -0.4500    1.6090    0.0740 ca        1 BPM     -0.212300
     14 C2B         0.0580    2.7460   -0.5600 ca        1 BPM     -0.091000
     15 C3B        -0.6490    3.9400   -0.5780 ca        1 BPM     -0.288500
     16 C5B        -2.4210    2.9080    0.7130 ca        1 BPM     -0.288500
     17 C6B        -1.6960    1.7320    0.7170 ca        1 BPM     -0.091000
     18 C4B        -1.9290    4.0690    0.0430 ca        1 BPM      0.337100
     19 O1B        -2.5430    5.2200   -0.0170 os        1 BPM     -0.452500
     20 PB         -4.2130    5.9100    0.2910 p5        1 BPM      1.340900
     21 O2B        -4.7300    6.0430   -1.1060 o         1 BPM     -0.911833
     22 O3B        -4.8400    4.8470    1.1380 o         1 BPM     -0.911833
     23 O4B        -3.8470    7.1860    0.9840 o         1 BPM     -0.911833
     24 HC01       -0.1560   -0.3260    0.9110 hc        1 BPM     -0.003300
     25 HC02       -0.2650   -0.2630   -0.8860 hc        1 BPM     -0.003300
     26 H2A         2.1900    1.8860    1.0360 ha        1 BPM      0.088000
     27 H3A         4.6300    1.3960    1.0540 ha        1 BPM      0.133500
     28 H5A         3.9240   -2.2280   -1.2020 ha        1 BPM      0.133500
     29 H6A         1.4940   -1.7180   -1.2100 ha        1 BPM      0.088000
     30 H2B         1.0400    2.6830   -1.0530 ha        1 BPM      0.088000
     31 H3B        -0.2330    4.8210   -1.0830 ha        1 BPM      0.133500
     32 H5B        -3.3990    2.9770    1.2180 ha        1 BPM      0.133500
     33 H6B        -2.1100    0.8540    1.2390 ha        1 BPM      0.088000
@<TRIPOS>BOND
     1    1    2 1   
     2    1   13 1   
     3    1   24 1   
     4    1   25 1   
     5    2    3 ar  
     6    2    6 ar  
     7    3    4 ar  
     8    3   26 1   
     9    4    7 ar  
    10    4   27 1   
    11    5    6 ar  
    12    5    7 ar  
    13    5   28 1   
    14    6   29 1   
    15    7    8 1   
    16    8    9 1   
    17    9   10 1   
    18    9   11 1   
    19    9   12 1   
    20   13   14 ar  
    21   13   17 ar  
    22   14   15 ar  
    23   14   30 1   
    24   15   18 ar  
    25   15   31 1   
    26   16   17 ar  
    27   16   18 ar  
    28   16   32 1   
    29   17   33 1   
    30   18   19 1   
    31   19   20 1   
    32   20   21 1   
    33   20   22 1   
    34   20   23 1   
@<TRIPOS>SUBSTRUCTURE
     1 BPM         1 TEMP              0 ****  ****    0 ROOT
