@<TRIPOS>MOLECULE
molecule
   18    18     1     0     0
SMALL
bcc


@<TRIPOS>ATOM
      1 C1           0.0000     0.0000     0.0000 ca         1 BPN      -0.024300
      2 C2           1.3850     0.0000     0.0000 ca         1 BPN      -0.129000
      3 C3           2.0780     0.0000     1.1880 ca         1 BPN      -0.048000
      4 C4           1.3760    -0.0000     2.4050 ca         1 BPN      -0.201200
      5 C5          -0.0290     0.0000     2.3940 ca         1 BPN      -0.048000
      6 C6          -0.7020     0.0060     1.1940 ca         1 BPN      -0.129000
      7 C7          -0.7480     0.0000    -1.3080 c3         1 BPN       0.178700
      8 N1           2.0440    -0.0000     3.5730 no         1 BPN       0.328200
      9 O1          -0.9860    -1.3460    -1.7210 oh         1 BPN      -0.599800
     10 O4           1.4320     0.0010     4.6250 o          1 BPN      -0.223500
     11 O5           3.2620     0.0000     3.5780 o          1 BPN      -0.223500
     12 H2           1.9250    -0.0020    -0.9390 ha         1 BPN       0.150000
     13 H3           3.1620    -0.0000     1.1860 ha         1 BPN       0.171000
     14 H5          -0.5800     0.0020     3.3270 ha         1 BPN       0.171000
     15 H6          -1.7860     0.0060     1.1840 ha         1 BPN       0.150000
     16 H71         -0.1590     0.5100    -2.0610 h1         1 BPN       0.033700
     17 H72         -1.6950     0.5120    -1.1830 h1         1 BPN       0.033700
     18 HO1         -1.4540    -1.3460    -2.5390 ho         1 BPN       0.410000
@<TRIPOS>BOND
     1     1     2 ar
     2     1     6 ar
     3     1     7 1
     4     2     3 ar
     5     2    12 1
     6     3     4 ar
     7     3    13 1
     8     4     5 ar
     9     4     8 1
    10     5     6 ar
    11     5    14 1
    12     6    15 1
    13     7     9 1
    14     7    16 1
    15     7    17 1
    16     8    10 1
    17     8    11 1
    18     9    18 1
@<TRIPOS>SUBSTRUCTURE
     1 BPN         1 TEMP              0 ****  ****    0 ROOT
