@<TRIPOS>MOLECULE
BPO
   64    67     1     0     0
SMALL
bcc


@<TRIPOS>ATOM
      1 C22          0.0000     0.0000     0.0000 ca         1 BPO      -0.195600
      2 C1         -10.0140     3.0410    -4.8680 ca         1 BPO      -0.027000
      3 N1         -13.8800     6.2190    -3.9670 nz         1 BPO       0.122400
      4 C2         -12.1200     4.1800    -4.9510 ca         1 BPO      -0.098000
      5 C7          -6.0960     2.5790    -3.1150 c3         1 BPO      -0.004000
      6 C6          -5.6820     1.1330    -3.2140 c          1 BPO       0.589100
      7 C5          -9.5970     3.8750    -3.8290 ca         1 BPO      -0.153600
      8 C4         -10.4490     4.8690    -3.3540 ca         1 BPO       0.008000
      9 C3         -11.7150     5.0190    -3.9120 ca         1 BPO      -0.178900
     10 C11         -4.2070     4.2190    -3.1650 ca         1 BPO      -0.081500
     11 C10         -5.1070     3.4360    -3.8620 ca         1 BPO      -0.124300
     12 C9         -12.6290     6.0690    -3.4090 ce         1 BPO       0.224800
     13 C12         -3.3000     5.0070    -3.8500 ca         1 BPO      -0.094000
     14 C17         -2.7600    -0.7200    -2.5160 c3         1 BPO      -0.118400
     15 C16         -4.2910    -0.7480    -2.4920 c3         1 BPO       0.061500
     16 C14         -4.1920     4.2250    -5.9290 ca         1 BPO      -0.094000
     17 C13         -3.2930     5.0090    -5.2320 ca         1 BPO      -0.082000
     18 C15         -5.0960     3.4340    -5.2440 ca         1 BPO      -0.081500
     19 C18         -2.2460     0.0020    -1.2690 c3         1 BPO      -0.069700
     20 C19         -0.7390     0.0010    -1.2720 c          1 BPO       0.623700
     21 C20         -2.7560     1.4440    -1.2660 c3         1 BPO      -0.118400
     22 C          -11.2690     3.1980    -5.4210 ca         1 BPO      -0.074000
     23 O           -6.1550     0.4250    -4.0770 o          1 BPO      -0.663100
     24 O1          -7.8900     4.4320    -2.3330 o          1 BPO      -0.644100
     25 N           -7.4280     2.7460    -3.7010 ns         1 BPO      -0.143900
     26 N2         -12.2500     6.8520    -2.4390 n2         1 BPO      -0.439100
     27 N3          -4.7860     0.6280    -2.3430 n          1 BPO      -0.122800
     28 O2          -0.1360     0.0010    -2.3230 o          1 BPO      -0.533100
     29 C21         -4.2820     1.4440    -1.2300 c3         1 BPO       0.061500
     30 C23          1.3980     0.0000     0.0000 ca         1 BPO      -0.053000
     31 C24          2.0830     0.0000     1.1970 ca         1 BPO      -0.111500
     32 C25          1.3910    -0.0010     2.3950 ca         1 BPO      -0.063000
     33 C26          0.0070    -0.0010     2.4030 ca         1 BPO      -0.111500
     34 C27         -0.6930     0.0060     1.2150 ca         1 BPO      -0.053000
     35 HN11       -14.3600     6.9700    -3.5110 hn         1 BPO       0.226133
     36 HN12       -14.4000     5.3720    -3.8530 hn         1 BPO       0.226133
     37 H7          -6.1190     2.8780    -2.0750 h1         1 BPO       0.074700
     38 H4          -9.9190     5.2120    -2.4730 ha         1 BPO       0.179000
     39 H11         -4.2130     4.2170    -2.0810 ha         1 BPO       0.107500
     40 H12         -2.5950     5.6210    -3.3030 ha         1 BPO       0.108000
     41 H171        -2.3810    -1.7350    -2.5270 hc         1 BPO       0.055950
     42 H172        -2.4230    -0.1940    -3.4010 hc         1 BPO       0.055950
     43 H161        -4.6300    -1.3470    -1.6560 h1         1 BPO       0.030700
     44 H162        -4.6600    -1.1670    -3.4210 h1         1 BPO       0.030700
     45 H14         -4.1850     4.2250    -7.0120 ha         1 BPO       0.108000
     46 H13         -2.5840     5.6270    -5.7680 ha         1 BPO       0.108000
     47 H15         -5.8010     2.8200    -5.7910 ha         1 BPO       0.107500
     48 H18         -2.6090    -0.5080    -0.3850 hc         1 BPO       0.024700
     49 H201        -2.8910     0.8330    -0.3820 hc         1 BPO       0.055950
     50 H202        -2.1770     2.2790    -0.8900 hc         1 BPO       0.055950
     51 H          -11.5880     2.5490    -6.2270 ha         1 BPO       0.126000
     52 HA          -7.7350     2.1320    -4.4290 hn         1 BPO       0.199500
     53 HB         -12.8660     7.5630    -2.0980 hn         1 BPO       0.334400
     54 H211        -4.6460     2.4590    -1.3320 h1         1 BPO       0.030700
     55 H212        -4.6220     1.0230    -0.2910 h1         1 BPO       0.030700
     56 H23          1.9420     0.0010    -0.9370 ha         1 BPO       0.113500
     57 H24          3.1660    -0.0000     1.1990 ha         1 BPO       0.109500
     58 H25          1.9350    -0.0040     3.3320 ha         1 BPO       0.107000
     59 H26         -0.5270     0.0010     3.3450 ha         1 BPO       0.109500
     60 H27         -1.7760     0.0060     1.2230 ha         1 BPO       0.113500
     61 C8          -8.2520     3.7050    -3.2380 c          1 BPO       0.579700
     62 H1          -9.3520     2.2680    -5.2400 ha         1 BPO       0.128000
     63 H131       -13.7880     6.4260    -4.9420 hn         1 BPO       0.226133
     64 H2         -13.1040     4.2960    -5.3880 ha         1 BPO       0.079000
@<TRIPOS>BOND
     1     1    20 1   
     2     1    30 ar  
     3     1    34 ar  
     4     2     7 ar  
     5     2    22 ar  
     6     2    62 1   
     7     3    12 1   
     8     3    35 1   
     9     3    36 1   
    10     3    63 1   
    11     4     9 ar  
    12     4    22 ar  
    13     4    64 1   
    14     5     6 1   
    15     5    11 1   
    16     5    25 1   
    17     5    37 1   
    18     6    23 2   
    19     6    27 1   
    20     7     8 ar  
    21     7    61 1   
    22     8     9 ar  
    23     8    38 1   
    24     9    12 1   
    25    10    11 ar  
    26    10    13 ar  
    27    10    39 1   
    28    11    18 ar  
    29    12    26 2   
    30    13    17 ar  
    31    13    40 1   
    32    14    15 1   
    33    14    19 1   
    34    14    41 1   
    35    14    42 1   
    36    15    27 1   
    37    15    43 1   
    38    15    44 1   
    39    16    17 ar  
    40    16    18 ar  
    41    16    45 1   
    42    17    46 1   
    43    18    47 1   
    44    19    20 1   
    45    19    21 1   
    46    19    48 1   
    47    20    28 2   
    48    21    29 1   
    49    21    49 1   
    50    21    50 1   
    51    22    51 1   
    52    24    61 2   
    53    25    52 1   
    54    25    61 1   
    55    26    53 1   
    56    27    29 1   
    57    29    54 1   
    58    29    55 1   
    59    30    31 ar  
    60    30    56 1   
    61    31    32 ar  
    62    31    57 1   
    63    32    33 ar  
    64    32    58 1   
    65    33    34 ar  
    66    33    59 1   
    67    34    60 1   
@<TRIPOS>SUBSTRUCTURE
     1 BPO         1 TEMP              0 ****  ****    0 ROOT
