@<TRIPOS>MOLECULE
molecule
   53    56     1     0     0
SMALL
bcc


@<TRIPOS>ATOM
      1 C1           0.0000     0.0000     0.0000 ce         1 BPP      -0.224600
      2 C2           1.4430     0.0000     0.0000 c2         1 BPP       0.102800
      3 C3           2.1140     0.0000     1.2560 c3         1 BPP      -0.134600
      4 C4           1.3830     0.0050     2.4730 cf         1 BPP       0.335600
      5 C5          -0.0440     0.0060     2.4600 cf         1 BPP       0.005400
      6 C6          -0.7210     0.0100     1.2200 ce         1 BPP      -0.259000
      7 C10          3.4520    -0.0150     1.6340 c2         1 BPP      -0.173200
      8 C11          3.5310    -0.0240     3.0310 ce         1 BPP       0.124400
      9 N12          2.2370    -0.0130     3.4830 ne         1 BPP      -0.428300
     10 C13         -0.7390    -0.0330    -1.2150 ce         1 BPP       0.305500
     11 N14         -1.9090    -0.6360    -1.1450 nz         1 BPP      -0.740600
     12 N15         -0.2980     0.4770    -2.3420 nv         1 BPP      -0.316100
     13 C17          4.6780    -0.0690     3.8920 c          1 BPP       0.690300
     14 O18          5.3280     0.9400     4.2050 o          1 BPP      -0.507100
     15 N19          5.0860    -1.3980     4.4160 n          1 BPP      -0.520800
     16 C20          6.2920    -1.6070     5.3330 c3         1 BPP       0.119500
     17 C21          7.3130    -2.3070     4.3900 c3         1 BPP      -0.101400
     18 C22          6.7030    -3.5960     3.8380 c3         1 BPP      -0.058700
     19 C23          5.3040    -3.3200     3.1330 c3         1 BPP      -0.101400
     20 C24          4.3830    -2.6340     4.0850 c3         1 BPP       0.119500
     21 C33          7.6430    -4.3330     2.8290 c3         1 BPP      -0.027100
     22 C35          7.0820    -5.7420     2.4690 ca         1 BPP      -0.026300
     23 C38          6.3380    -5.9740     1.2440 ca         1 BPP      -0.123500
     24 C39          5.8300    -7.2470     0.9250 ca         1 BPP      -0.129000
     25 C40          6.0600    -8.3090     1.8290 ca         1 BPP      -0.071000
     26 C41          6.7850    -8.1120     3.0340 ca         1 BPP      -0.129000
     27 C42          7.2920    -6.8470     3.3510 ca         1 BPP      -0.123500
     28 H2           2.0000    -0.0080    -0.9290 ha         1 BPP       0.179000
     29 H3           2.1410     1.0810     1.1940 hc         1 BPP       0.230700
     30 H5          -0.6010     0.0140     3.3890 ha         1 BPP       0.210000
     31 H6          -1.8040     0.0100     1.2020 ha         1 BPP       0.153000
     32 H10          4.1850     0.5310     1.0530 ha         1 BPP       0.192000
     33 H141        -1.8180    -1.4840    -0.6210 hn         1 BPP       0.491800
     34 H142        -2.5690    -0.0340    -0.6920 hn         1 BPP       0.491800
     35 H151         0.1970    -0.2290    -2.8500 hn         1 BPP       0.261200
     36 H152         0.5880     0.9140    -2.1810 hn         1 BPP       0.261200
     37 H201         6.0340    -2.2510     6.1650 h1         1 BPP       0.066950
     38 H202         6.6800    -0.6560     5.6790 h1         1 BPP       0.066950
     39 H211         7.5570    -1.6440     3.5690 hc         1 BPP       0.054950
     40 H212         8.2120    -2.5450     4.9470 hc         1 BPP       0.054950
     41 H22          6.5240    -4.2590     4.6760 hc         1 BPP       0.059700
     42 H231         5.4580    -2.6880     2.2660 hc         1 BPP       0.054950
     43 H232         4.8650    -4.2610     2.8260 hc         1 BPP       0.054950
     44 H241         3.4360    -2.4150     3.6060 h1         1 BPP       0.066950
     45 H242         4.2380    -3.2370     4.9730 h1         1 BPP       0.066950
     46 H331         7.7270    -3.7420     1.9250 hc         1 BPP       0.065700
     47 H332         8.6240    -4.4440     3.2740 hc         1 BPP       0.065700
     48 H38          6.1730    -5.1510     0.5600 ha         1 BPP       0.145500
     49 H39          5.4820    -7.4560    -0.0790 ha         1 BPP       0.154500
     50 H40          5.6740    -9.2950     1.5980 ha         1 BPP       0.150000
     51 H41          6.9470    -8.9430     3.7090 ha         1 BPP       0.154500
     52 H42          7.9060    -6.9670     4.2360 ha         1 BPP       0.145500
     53 H143        -2.2280    -0.8540    -2.0680 hn         1 BPP       0.491800
@<TRIPOS>BOND
     1     1     2 2
     2     1     6 1
     3     1    10 1
     4     2     3 1
     5     2    28 1
     6     3     4 1
     7     3     7 1
     8     3    29 1
     9     4     5 1
    10     4     9 2
    11     5     6 2
    12     5    30 1
    13     6    31 1
    14     7     8 2
    15     7    32 1
    16     8     9 1
    17     8    13 1
    18    10    11 1
    19    10    12 2
    20    11    33 1
    21    11    34 1
    22    12    35 1
    23    12    36 1
    24    13    14 2
    25    13    15 1
    26    15    16 1
    27    15    20 1
    28    16    17 1
    29    16    37 1
    30    16    38 1
    31    17    18 1
    32    17    39 1
    33    17    40 1
    34    18    19 1
    35    18    21 1
    36    18    41 1
    37    19    20 1
    38    19    42 1
    39    19    43 1
    40    20    44 1
    41    20    45 1
    42    21    22 1
    43    21    46 1
    44    21    47 1
    45    22    23 ar
    46    22    27 ar
    47    23    24 ar
    48    23    48 1
    49    24    25 ar
    50    24    49 1
    51    25    26 ar
    52    25    50 1
    53    26    27 ar
    54    26    51 1
    55    27    52 1
    56    53    11 1
@<TRIPOS>SUBSTRUCTURE
     1 BPP         1 TEMP              0 ****  ****    0 ROOT
