@<TRIPOS>MOLECULE
molecule
   38    39     1     0     0
SMALL
bcc


@<TRIPOS>ATOM
      1 C2           0.0000     0.0000     0.0000 cc         1 BPQ       0.458800
      2 N1           1.3640     0.0000     0.0000 ns         1 BPQ      -0.466400
      3 C6           2.0430     0.0000     1.1690 c          1 BPQ       0.728100
      4 O6           3.2630    -0.0000     1.1830 o          1 BPQ      -0.546500
      5 C5           1.3040     0.0010     2.3720 cc         1 BPQ      -0.194600
      6 C7           1.6530    -0.0000     3.7920 cc         1 BPQ      -0.109300
      7 C10          3.0430    -0.0020     4.3760 c3         1 BPQ       0.206300
      8 N11          3.5870     1.3590     4.3450 ns         1 BPQ      -0.581900
      9 C8           0.4970    -0.0000     4.4740 cd         1 BPQ      -0.056300
     10 N9          -0.5570     0.0010     3.5950 na         1 BPQ      -0.125100
     11 C4          -0.0960     0.0020     2.3110 cd         1 BPQ       0.140100
     12 N3          -0.6980     0.0010     1.1130 nd         1 BPQ      -0.563100
     13 N2          -0.6640     0.0070    -1.2010 nz         1 BPQ      -0.728600
     14 C14          4.8250     1.6000     4.8190 c          1 BPQ       0.758100
     15 O15          5.4900     0.6900     5.2730 o          1 BPQ      -0.605000
     16 C20          7.6510     2.1810     4.5210 c3         1 BPQ      -0.106100
     17 C17          6.6650     3.0370     5.3180 c3         1 BPQ       0.176800
     18 C19          6.6970     2.6140     6.7880 c3         1 BPQ      -0.106100
     19 C18          7.0590     4.5100     5.2020 c3         1 BPQ      -0.106100
     20 O16          5.3250     2.8500     4.7900 os         1 BPQ      -0.436900
     21 HN1          1.8630    -0.0010    -0.8670 hn         1 BPQ       0.347500
     22 H10          3.6790    -0.6580     3.7950 h1         1 BPQ       0.077700
     23 H10A         3.0040    -0.3510     5.4010 h1         1 BPQ       0.077700
     24 HN11         3.0260     2.1140     4.0040 hn         1 BPQ       0.320500
     25 H8           0.4100    -0.0010     5.5530 h4         1 BPQ       0.210000
     26 HN9         -1.5230     0.0020     3.8580 hn         1 BPQ       0.327700
     27 HN2         -0.4140     0.8280    -1.7150 hn         1 BPQ       0.478133
     28 HN2A        -0.4100    -0.8060    -1.7260 hn         1 BPQ       0.478133
     29 H20          7.6560     1.1720     4.9170 hc         1 BPQ       0.051922
     30 H20A         7.3510     2.1580     3.4800 hc         1 BPQ       0.051922
     31 H20B         8.6440     2.6050     4.6010 hc         1 BPQ       0.051922
     32 H19          7.5130     3.1190     7.2920 hc         1 BPQ       0.051922
     33 H19A         5.7600     2.8820     7.2610 hc         1 BPQ       0.051922
     34 H19B         6.8410     1.5430     6.8530 hc         1 BPQ       0.051922
     35 H18          8.0580     4.6500     5.5960 hc         1 BPQ       0.051922
     36 H18A         7.0360     4.8090     4.1610 hc         1 BPQ       0.051922
     37 H18B         6.3600     5.1160     5.7670 hc         1 BPQ       0.051922
     38 H23         -1.6510    -0.0140    -1.0360 hn         1 BPQ       0.478133
@<TRIPOS>BOND
     1     1     2 1
     2     1    12 2
     3     1    13 1
     4     2     3 1
     5     3     4 2
     6     3     5 1
     7     5     6 1
     8     5    11 2
     9     6     7 1
    10     6     9 2
    11     7     8 1
    12     8    14 1
    13     9    10 1
    14    10    11 1
    15    11    12 1
    16    14    15 2
    17    14    20 1
    18    16    17 1
    19    17    18 1
    20    17    19 1
    21    17    20 1
    22     2    21 1
    23     7    22 1
    24     7    23 1
    25     8    24 1
    26     9    25 1
    27    10    26 1
    28    13    27 1
    29    13    28 1
    30    16    29 1
    31    16    30 1
    32    16    31 1
    33    18    32 1
    34    18    33 1
    35    18    34 1
    36    19    35 1
    37    19    36 1
    38    19    37 1
    39    38    13 1
@<TRIPOS>SUBSTRUCTURE
     1 BPQ         1 TEMP              0 ****  ****    0 ROOT
