@<TRIPOS>MOLECULE
BPS
   25    26     1     0     0
SMALL
bcc


@<TRIPOS>ATOM
      1 CX1         0.0300   -0.0780   -0.0360 ca        1 BPS     -0.141000
      2 CX2         1.4330   -0.0420    0.0460 cp        1 BPS      0.072000
      3 CX3         2.0570    0.0290    1.2980 ca        1 BPS     -0.153500
      4 CX4         1.2540    0.0400    2.4490 ca        1 BPS     -0.067000
      5 CX5        -0.1330   -0.0020    2.3690 ca        1 BPS     -0.147000
      6 CX6        -0.7470   -0.0580    1.1160 ca        1 BPS     -0.086000
      7 CX7         2.1840   -0.0910   -1.2160 cp        1 BPS     -0.069000
      8 CX8         2.8650   -1.2560   -1.5930 ca        1 BPS     -0.108000
      9 CX9         3.5310   -1.3100   -2.8170 ca        1 BPS     -0.131500
     10 CXA         3.5280   -0.2040   -3.6660 ca        1 BPS     -0.119000
     11 CXB         2.8560    0.9590   -3.2920 ca        1 BPS     -0.131500
     12 CXC         2.1810    1.0170   -2.0740 ca        1 BPS     -0.108000
     13 SX1         3.7250    0.1380    1.6710 sx        1 BPS      0.626500
     14 OX1         4.3850   -1.2460    0.9390 oh        1 BPS     -0.598800
     15 OX2         4.3590    1.1180    0.7900 o         1 BPS     -0.522200
     16 H1         -0.4500   -0.1250   -1.0250 ha        1 BPS      0.143000
     17 HX4         1.7340    0.0830    3.4410 ha        1 BPS      0.129000
     18 HX5        -0.7430    0.0090    3.2840 ha        1 BPS      0.137000
     19 HX6        -1.8450   -0.0880    1.0420 ha        1 BPS      0.136000
     20 HX8         2.8750   -2.1270   -0.9190 ha        1 BPS      0.143500
     21 HX9         4.0610   -2.2280   -3.1090 ha        1 BPS      0.134000
     22 HX10        4.0590   -0.2480   -4.6290 ha        1 BPS      0.132000
     23 HX11        2.8600    1.8360   -3.9560 ha        1 BPS      0.134000
     24 HX12        1.6560    1.9370   -1.7760 ha        1 BPS      0.143500
     25 HX1         4.7730   -1.0560    0.0810 ho        1 BPS      0.450000
@<TRIPOS>BOND
     1    1    2 ar  
     2    1    6 ar  
     3    1   16 1   
     4    2    3 ar  
     5    2    7 1   
     6    3    4 ar  
     7    3   13 1   
     8    4    5 ar  
     9    4   17 1   
    10    5    6 ar  
    11    5   18 1   
    12    6   19 1   
    13    7    8 ar  
    14    7   12 ar  
    15    8    9 ar  
    16    8   20 1   
    17    9   10 ar  
    18    9   21 1   
    19   10   11 ar  
    20   10   22 1   
    21   11   12 ar  
    22   11   23 1   
    23   12   24 1   
    24   13   14 1   
    25   13   15 2   
    26   14   25 1   
@<TRIPOS>SUBSTRUCTURE
     1 BPS         1 TEMP              0 ****  ****    0 ROOT
