@<TRIPOS>MOLECULE
molecule
   25    26     1     0     0
SMALL
bcc


@<TRIPOS>ATOM
      1 CX1          0.0000     0.0000     0.0000 ca         1 BPS      -0.138000
      2 CX2          1.3930     0.0000     0.0000 cp         1 BPS       0.066000
      3 CX3          2.0860     0.0000     1.2090 ca         1 BPS      -0.146500
      4 CX4          1.3880     0.0110     2.4000 ca         1 BPS      -0.062000
      5 CX5          0.0050     0.0160     2.3940 ca         1 BPS      -0.153000
      6 CX6         -0.6870     0.0120     1.1970 ca         1 BPS      -0.090000
      7 CX7          2.1380    -0.0120    -1.2840 cp         1 BPS      -0.035000
      8 CX8          3.0310    -1.0440    -1.5650 ca         1 BPS      -0.086000
      9 CX9          3.7150    -1.0540    -2.7640 ca         1 BPS      -0.132500
     10 CXA          3.5260    -0.0340    -3.6790 ca         1 BPS      -0.121000
     11 CXB          2.6450     0.9960    -3.4020 ca         1 BPS      -0.132500
     12 CXC          1.9500     1.0120    -2.2110 ca         1 BPS      -0.086000
     13 SX1          3.8470    -0.0070     1.2170 sx         1 BPS       0.663500
     14 OX1          4.1070    -1.4920     1.0070 oh         1 BPS      -0.622800
     15 OX2          4.1030     0.4760    -0.0930 o          1 BPS      -0.517200
     16 H1          -0.5430    -0.0020    -0.9370 ha         1 BPS       0.140000
     17 HX4          1.9250     0.0120     3.3410 ha         1 BPS       0.118000
     18 HX5         -0.5380     0.0250     3.3320 ha         1 BPS       0.129000
     19 HX6         -1.7700     0.0140     1.1980 ha         1 BPS       0.130000
     20 HX8          3.1790    -1.8440    -0.8490 ha         1 BPS       0.133500
     21 HX9          4.4080    -1.8570    -2.9850 ha         1 BPS       0.122500
     22 HX10         4.0670    -0.0440    -4.6170 ha         1 BPS       0.120000
     23 HX11         2.5010     1.7920    -4.1230 ha         1 BPS       0.122500
     24 HX12         1.2610     1.8200    -1.9950 ha         1 BPS       0.133500
     25 HX1          4.7460    -1.7910     1.6330 ho         1 BPS       0.445000
@<TRIPOS>BOND
     1     1     2 ar
     2     1     6 ar
     3     1    16 1
     4     2     3 ar
     5     2     7 1
     6     3     4 ar
     7     3    13 1
     8     4     5 ar
     9     4    17 1
    10     5     6 ar
    11     5    18 1
    12     6    19 1
    13     7     8 ar
    14     7    12 ar
    15     8     9 ar
    16     8    20 1
    17     9    10 ar
    18     9    21 1
    19    10    11 ar
    20    10    22 1
    21    11    12 ar
    22    11    23 1
    23    12    24 1
    24    13    14 1
    25    13    15 2
    26    14    25 1
@<TRIPOS>SUBSTRUCTURE
     1 BPS         1 TEMP              0 ****  ****    0 ROOT
