@<TRIPOS>MOLECULE
BPU
   22    24     1     0     0
SMALL
bcc


@<TRIPOS>ATOM
      1 OAA          0.0000     0.0000     0.0000 o          1 BPU      -0.655500
      2 CAC          4.2800     0.0000     0.5900 cc         1 BPU      -0.171000
      3 CAD          2.0830     0.0010     5.8220 ca         1 BPU      -0.095000
      4 CAE          3.0120     0.0000     0.0000 cc         1 BPU      -0.065000
      5 CAF          2.7740     0.0000     4.6280 ca         1 BPU      -0.072000
      6 CAG          4.1140     0.0000     1.9350 cd         1 BPU      -0.319300
      7 CAH          0.0010     0.0010     4.6320 ca         1 BPU      -0.119000
      8 NAI         -0.0230    -0.0000     2.2250 ns         1 BPU      -0.007100
      9 CAJ          0.6980     0.0000     5.8240 ca         1 BPU       0.064100
     10 CAK          0.6270     0.0000     1.0440 c          1 BPU       0.656100
     11 CAL          0.6880     0.0010     3.4250 ca         1 BPU      -0.064400
     12 CAM          2.0900     0.0000     1.0250 cd         1 BPU      -0.406900
     13 CAN          2.0820     0.0000     3.4240 ca         1 BPU      -0.218200
     14 NAO          2.7870     0.0000     2.2160 na         1 BPU       0.609800
     15 HAC          5.2270    -0.0330     0.0650 ha         1 BPU       0.131000
     16 HAD          2.6250     0.0020     6.7600 ha         1 BPU       0.124000
     17 HAE          2.7960    -0.0000    -1.0610 ha         1 BPU       0.137000
     18 HAF          3.8580     0.0010     4.6300 ha         1 BPU       0.120000
     19 HAG          4.9130    -0.0000     2.6670 h4         1 BPU       0.147000
     20 HAH         -1.0830     0.0020     4.6390 ha         1 BPU       0.129000
     21 HNAI        -1.0240    -0.0010     2.2410 hn         1 BPU       0.186500
     22 Br          -0.2420     0.0000     7.4660 br         1 BPU      -0.110100
@<TRIPOS>BOND
     1     1    10 2   
     2     2     4 1   
     3     2     6 2   
     4     2    15 1   
     5     3     5 ar  
     6     3     9 ar  
     7     3    16 1   
     8     4    12 2   
     9     4    17 1   
    10     5    13 ar  
    11     5    18 1   
    12     6    14 1   
    13     6    19 1   
    14     7     9 ar  
    15     7    11 ar  
    16     7    20 1   
    17     8    10 1   
    18     8    11 1   
    19     8    21 1   
    20     9    22 1   
    21    10    12 1   
    22    11    13 ar  
    23    12    14 1   
    24    13    14 1   
@<TRIPOS>SUBSTRUCTURE
     1 BPU         1 TEMP              0 ****  ****    0 ROOT
