@<TRIPOS>MOLECULE
molecule
   22    24     1     0     0
SMALL
bcc


@<TRIPOS>ATOM
      1 OAA          0.0000     0.0000     0.0000 o          1 BPU      -0.613500
      2 CAC          4.2800     0.0000     0.5900 cc         1 BPU      -0.206000
      3 CAD          2.0830     0.0010     5.8220 ca         1 BPU      -0.113000
      4 CAE          3.0120     0.0000     0.0000 cc         1 BPU      -0.102000
      5 CAF          2.7740     0.0000     4.6280 ca         1 BPU      -0.116000
      6 CAG          4.1140     0.0000     1.9350 cd         1 BPU      -0.124300
      7 CAH          0.0010     0.0010     4.6320 ca         1 BPU      -0.135000
      8 NAI         -0.0230    -0.0000     2.2250 ns         1 BPU      -0.454100
      9 CAJ          0.6980     0.0000     5.8240 ca         1 BPU       0.002100
     10 CAK          0.6270     0.0000     1.0440 c          1 BPU       0.741100
     11 CAL          0.6880     0.0010     3.4250 ca         1 BPU       0.064600
     12 CAM          2.0900     0.0000     1.0250 cd         1 BPU      -0.199900
     13 CAN          2.0820     0.0000     3.4240 ca         1 BPU      -0.021200
     14 NAO          2.7870     0.0000     2.2160 na         1 BPU       0.048800
     15 HAC          5.2270    -0.0330     0.0650 ha         1 BPU       0.160000
     16 HAD          2.6250     0.0020     6.7600 ha         1 BPU       0.153000
     17 HAE          2.7960    -0.0000    -1.0610 ha         1 BPU       0.170000
     18 HAF          3.8580     0.0010     4.6300 ha         1 BPU       0.149000
     19 HAG          4.9130    -0.0000     2.6670 h4         1 BPU       0.170000
     20 HAH         -1.0830     0.0020     4.6390 ha         1 BPU       0.155000
     21 HNAI        -1.0240    -0.0010     2.2410 hn         1 BPU       0.346500
     22 Br          -0.2420     0.0000     7.4660 br         1 BPU      -0.077100
@<TRIPOS>BOND
     1     1    10 2
     2    22     9 1
     3     2     4 1
     4     2     6 2
     5     3     5 ar
     6     3     9 ar
     7     4    12 2
     8     5    13 ar
     9     6    14 1
    10     7     9 ar
    11     7    11 ar
    12     8    10 1
    13     8    11 1
    14    10    12 1
    15    11    13 ar
    16    12    14 1
    17    13    14 1
    18     2    15 1
    19     3    16 1
    20     4    17 1
    21     5    18 1
    22     6    19 1
    23     7    20 1
    24     8    21 1
@<TRIPOS>SUBSTRUCTURE
     1 BPU         1 TEMP              0 ****  ****    0 ROOT
