@<TRIPOS>MOLECULE
molecule
    9     8     1     0     0
SMALL
bcc


@<TRIPOS>ATOM
      1 Br           0.0000     0.0000     0.0000 br         1 BPV      -0.236400
      2 C3           1.9660     0.0000     0.0000 c3         1 BPV      -0.086000
      3 C2           2.4680     0.0000     1.4210 c          1 BPV       0.461100
      4 O3           1.6830     0.0000     2.3390 o          1 BPV      -0.511100
      5 C1           3.9330    -0.0000     1.6930 c          1 BPV       0.813600
      6 O2           4.3820    -0.0000     2.9620 o          1 BPV      -0.806300
      7 O1           4.7210    -0.0000     0.7720 o          1 BPV      -0.806300
      8 H3           2.3270     0.8850    -0.5110 h1         1 BPV       0.085700
      9 H3A          2.3270    -0.8850    -0.5110 h1         1 BPV       0.085700
@<TRIPOS>BOND
     1     2     1 1
     2     2     3 1
     3     2     8 1
     4     2     9 1
     5     3     4 2
     6     3     5 1
     7     7     5 1
     8     5     6 1
@<TRIPOS>SUBSTRUCTURE
     1 BPV         1 TEMP              0 ****  ****    0 ROOT
