@<TRIPOS>MOLECULE
BPV
    9     8     1     0     0
SMALL
bcc


@<TRIPOS>ATOM
      1 BR          0.0710   -0.0060   -0.3020 br        1 BPV     -0.248400
      2 C3          1.9620   -0.0030    0.1040 c3        1 BPV     -0.095000
      3 C2          2.4000    0.0010    1.5440 c         1 BPV      0.443100
      4 O3          1.6160    0.0030    2.4940 o         1 BPV     -0.540100
      5 C1          3.9460    0.0040    1.6750 c         1 BPV      0.847600
      6 O2          4.4360    0.0080    2.8290 o         1 BPV     -0.798800
      7 O1          4.5980    0.0020    0.5950 o         1 BPV     -0.798800
      8 H3          2.3890    0.9030   -0.3890 h1        1 BPV      0.094700
      9 H3A         2.3910   -0.9110   -0.3840 h1        1 BPV      0.094700
@<TRIPOS>BOND
     1    1    2 1   
     2    2    3 1   
     3    2    8 1   
     4    2    9 1   
     5    3    4 2   
     6    3    5 1   
     7    5    6 1   
     8    5    7 1   
@<TRIPOS>SUBSTRUCTURE
     1 BPV         1 TEMP              0 ****  ****    0 ROOT
