@<TRIPOS>MOLECULE
molecule
   24    24     1     0     0
SMALL
bcc


@<TRIPOS>ATOM
      1 C4           0.0000     0.0000     0.0000 ca         1 BPW      -0.112000
      2 C5           0.0000     0.0040     2.3960 ca         1 BPW      -0.112000
      3 C7           1.3820     0.0000     0.0000 ca         1 BPW      -0.111500
      4 C8           1.3820    -0.0010     2.3950 ca         1 BPW      -0.111500
      5 C1          -0.6920     0.0050     1.1980 ca         1 BPW       0.042400
      6 Cl2         -2.4280     0.0130     1.1990 cl         1 BPW      -0.073400
      7 C3           2.0730     0.0000     1.1970 ca         1 BPW      -0.118300
      8 C11          4.0850    -1.4510     1.1920 c3         1 BPW      -0.109400
      9 C9           5.6150    -1.4570     1.1920 c3         1 BPW       0.088800
     10 N6           6.0990    -2.8440     1.1880 nz         1 BPW      -0.810600
     11 H1          -0.5420     0.0000    -0.9380 ha         1 BPW       0.158000
     12 H2          -0.5410     0.0060     3.3340 ha         1 BPW       0.158000
     13 H3           1.9230    -0.0010    -0.9380 ha         1 BPW       0.134000
     14 H4           1.9250    -0.0010     3.3330 ha         1 BPW       0.134000
     15 H5           3.9440     0.5000     2.0830 hc         1 BPW       0.062700
     16 H6           3.9430     0.5050     0.3140 hc         1 BPW       0.062700
     17 H7           3.7220    -1.9630     2.0750 hc         1 BPW       0.068700
     18 H8           3.7220    -1.9570     0.3060 hc         1 BPW       0.068700
     19 H9           5.9780    -0.9500     2.0790 hx         1 BPW       0.112700
     20 H10          5.9780    -0.9450     0.3100 hx         1 BPW       0.112700
     21 H11          5.7630    -3.3170     2.0030 hn         1 BPW       0.457467
     22 H12          5.7630    -3.3120     0.3690 hn         1 BPW       0.457467
     23 C10          3.5800    -0.0060     1.1970 c3         1 BPW      -0.018100
     24 H63          7.1000    -2.8480     1.1880 hn         1 BPW       0.457467
@<TRIPOS>BOND
     1    10     9 1
     2     9     8 1
     3     8    23 1
     4     4     2 ar
     5     4     7 ar
     6     2     5 ar
     7    23     7 1
     8     7     3 ar
     9     6     5 1
    10     5     1 ar
    11     3     1 ar
    12     1    11 1
    13     2    12 1
    14     3    13 1
    15     4    14 1
    16    23    15 1
    17    23    16 1
    18     8    17 1
    19     8    18 1
    20     9    19 1
    21     9    20 1
    22    10    21 1
    23    10    22 1
    24    24    10 1
@<TRIPOS>SUBSTRUCTURE
     1 BPW         1 TEMP              0 ****  ****    0 ROOT
