@<TRIPOS>MOLECULE
molecule
   33    33     1     0     0
SMALL
bcc


@<TRIPOS>ATOM
      1 CAJ          0.0000     0.0000     0.0000 ca         1 BPX      -0.111500
      2 CAI          1.3820     0.0000     0.0000 ca         1 BPX      -0.140500
      3 CAE          2.0730     0.0000     1.1980 ca         1 BPX      -0.151000
      4 CAD          1.3820     0.0010     2.3950 ca         1 BPX      -0.140500
      5 CAL         -0.0000     0.0020     2.3940 ca         1 BPX      -0.111500
      6 CAK         -0.6920     0.0000     1.1970 ca         1 BPX      -0.049300
      7 CAF         -2.1990     0.0020     1.1980 c3         1 BPX      -0.030100
      8 CAB         -2.7100    -1.4410     1.1980 c3         1 BPX      -0.158700
      9 CAC         -2.2460    -2.1380     2.4500 c          1 BPX       0.891600
     10 OAO         -2.4120    -1.6180     3.5290 o          1 BPX      -0.844300
     11 OAN         -1.6480    -3.3370     2.3690 o          1 BPX      -0.844300
     12 CAA         -4.2390    -1.4400     1.1510 c3         1 BPX      -0.072400
     13 CAG         -4.7080    -0.8860    -0.1970 c3         1 BPX       0.345600
     14 OAP         -4.3620     0.4970    -0.2890 oh         1 BPX      -0.583800
     15 OAQ         -4.0730    -1.6070    -1.2540 oh         1 BPX      -0.583800
     16 CAH         -6.2250    -1.0410    -0.3110 c3         1 BPX      -0.142700
     17 NAM         -6.6740    -0.5110    -1.6010 no         1 BPX       0.219300
     18 OAS         -6.0650    -0.7880    -2.6190 o          1 BPX      -0.216500
     19 OAR         -7.6570     0.2060    -1.6560 o          1 BPX      -0.216500
     20 HAJ         -0.5420    -0.0010    -0.9380 ha         1 BPX       0.141500
     21 HAI          1.9240    -0.0000    -0.9380 ha         1 BPX       0.110000
     22 HAE          3.1560    -0.0010     1.1980 ha         1 BPX       0.104000
     23 HAD          1.9230     0.0010     3.3330 ha         1 BPX       0.110000
     24 HAL         -0.5420     0.0020     3.3330 ha         1 BPX       0.141500
     25 HAF         -2.5600     0.5120     0.3130 hc         1 BPX       0.052200
     26 HAFA        -2.5600     0.5120     2.0820 hc         1 BPX       0.052200
     27 HAB         -2.3220    -1.9610     0.3300 hc         1 BPX       0.063700
     28 HAA         -4.6240    -0.8190     1.9510 hc         1 BPX       0.060700
     29 HAAA        -4.6040    -2.4530     1.2720 hc         1 BPX       0.060700
     30 HOAP        -4.4900     0.7950    -1.1750 ho         1 BPX       0.416000
     31 HOAQ        -4.3510    -2.5080    -1.2310 ho         1 BPX       0.416000
     32 HAH         -6.7060    -0.4940     0.4910 h1         1 BPX       0.105200
     33 HAHA        -6.4880    -2.0900    -0.2410 h1         1 BPX       0.105200
@<TRIPOS>BOND
     1     1     2 ar
     2     1     6 ar
     3     2     3 ar
     4     3     4 ar
     5     4     5 ar
     6     5     6 ar
     7     6     7 1
     8     7     8 1
     9     8     9 1
    10     8    12 1
    11     9    10 1
    12     9    11 1
    13    12    13 1
    14    13    14 1
    15    13    15 1
    16    13    16 1
    17    16    17 1
    18    17    18 1
    19    17    19 1
    20     1    20 1
    21     2    21 1
    22     3    22 1
    23     4    23 1
    24     5    24 1
    25     7    25 1
    26     7    26 1
    27     8    27 1
    28    12    28 1
    29    12    29 1
    30    14    30 1
    31    15    31 1
    32    16    32 1
    33    16    33 1
@<TRIPOS>SUBSTRUCTURE
     1 BPX         1 TEMP              0 ****  ****    0 ROOT
