@<TRIPOS>MOLECULE
BPX
   33    33     1     0     0
SMALL
bcc


@<TRIPOS>ATOM
      1 CAJ          0.0000     0.0000     0.0000 ca         1 BPX      -0.089500
      2 CAI          1.3820     0.0000     0.0000 ca         1 BPX      -0.115500
      3 CAE          2.0730     0.0000     1.1980 ca         1 BPX      -0.130000
      4 CAD          1.3820     0.0010     2.3950 ca         1 BPX      -0.115500
      5 CAL         -0.0000     0.0020     2.3940 ca         1 BPX      -0.089500
      6 CAK         -0.6920     0.0000     1.1970 ca         1 BPX      -0.047300
      7 CAF         -2.1990     0.0020     1.1980 c3         1 BPX       0.009900
      8 CAB         -2.7100    -1.4410     1.1980 c3         1 BPX      -0.145700
      9 CAC         -2.2460    -2.1380     2.4500 c          1 BPX       0.979600
     10 OAO         -2.4120    -1.6180     3.5290 o          1 BPX      -0.893800
     11 OAN         -1.6480    -3.3370     2.3690 o          1 BPX      -0.893800
     12 CAA         -4.2390    -1.4400     1.1510 c3         1 BPX      -0.033400
     13 CAG         -4.7080    -0.8860    -0.1970 c3         1 BPX       0.386600
     14 OAP         -4.3620     0.4970    -0.2890 oh         1 BPX      -0.571300
     15 OAQ         -4.0730    -1.6070    -1.2540 oh         1 BPX      -0.571300
     16 CAH         -6.2250    -1.0410    -0.3110 c3         1 BPX      -0.364700
     17 NAM         -6.6740    -0.5110    -1.6010 no         1 BPX       0.950300
     18 OAS         -6.0650    -0.7880    -2.6190 o          1 BPX      -0.447000
     19 OAR         -7.6570     0.2060    -1.6560 o          1 BPX      -0.447000
     20 HAJ         -0.5420    -0.0010    -0.9380 ha         1 BPX       0.119000
     21 HAI          1.9240    -0.0000    -0.9380 ha         1 BPX       0.087000
     22 HAE          3.1560    -0.0010     1.1980 ha         1 BPX       0.083000
     23 HAD          1.9230     0.0010     3.3330 ha         1 BPX       0.087000
     24 HAL         -0.5420     0.0020     3.3330 ha         1 BPX       0.119000
     25 HAF         -2.5600     0.5120     0.3130 hc         1 BPX       0.029200
     26 HAFA        -2.5600     0.5120     2.0820 hc         1 BPX       0.029200
     27 HAB         -2.3220    -1.9610     0.3300 hc         1 BPX       0.044700
     28 HAA         -4.6240    -0.8190     1.9510 hc         1 BPX       0.031700
     29 HAAA        -4.6040    -2.4530     1.2720 hc         1 BPX       0.031700
     30 HOAP        -4.4900     0.7950    -1.1750 ho         1 BPX       0.400000
     31 HOAQ        -4.3510    -2.5080    -1.2310 ho         1 BPX       0.400000
     32 HAH         -6.7060    -0.4940     0.4910 h1         1 BPX       0.083700
     33 HAHA        -6.4880    -2.0900    -0.2410 h1         1 BPX       0.083700
@<TRIPOS>BOND
     1     1     2 ar  
     2     1     6 ar  
     3     1    20 1   
     4     2     3 ar  
     5     2    21 1   
     6     3     4 ar  
     7     3    22 1   
     8     4     5 ar  
     9     4    23 1   
    10     5     6 ar  
    11     5    24 1   
    12     6     7 1   
    13     7     8 1   
    14     7    25 1   
    15     7    26 1   
    16     8     9 1   
    17     8    12 1   
    18     8    27 1   
    19     9    10 1   
    20     9    11 1   
    21    12    13 1   
    22    12    28 1   
    23    12    29 1   
    24    13    14 1   
    25    13    15 1   
    26    13    16 1   
    27    14    30 1   
    28    15    31 1   
    29    16    17 1   
    30    16    32 1   
    31    16    33 1   
    32    17    18 1   
    33    17    19 1   
@<TRIPOS>SUBSTRUCTURE
     1 BPX         1 TEMP              0 ****  ****    0 ROOT
