@<TRIPOS>MOLECULE
BPY
   24    25     1     0     0
SMALL
bcc


@<TRIPOS>ATOM
      1 CK1         0.0720    0.2450   -0.0000 ca        1 BPY     -0.121000
      2 CK2         1.4610    0.0390   -0.0170 cp        1 BPY     -0.034000
      3 CK3         2.1250   -0.1390    1.2120 ca        1 BPY      0.122100
      4 CK4         1.3900   -0.0930    2.4190 ca        1 BPY      0.038100
      5 CK5         0.0110    0.1190    2.4130 ca        1 BPY     -0.169000
      6 CK6        -0.6420    0.2840    1.1920 ca        1 BPY     -0.130000
      7 CK7         2.1710    0.0150   -1.2950 cp        1 BPY     -0.032000
      8 CK8         1.8290    0.9310   -2.3020 ca        1 BPY     -0.108500
      9 CK9         2.4840    0.9040   -3.5310 ca        1 BPY     -0.135500
     10 CKA         3.4850   -0.0370   -3.7710 ca        1 BPY     -0.125000
     11 CKB         3.8340   -0.9470   -2.7740 ca        1 BPY     -0.135500
     12 CKC         3.1850   -0.9210   -1.5410 ca        1 BPY     -0.108500
     13 OK1         2.1240   -0.2710    3.5760 oh        1 BPY     -0.519100
     14 OK2         3.4810   -0.3650    1.2070 oh        1 BPY     -0.491100
     15 HCK1       -0.4580    0.3720   -0.9570 ha        1 BPY      0.141000
     16 HCK5       -0.5490    0.1520    3.3580 ha        1 BPY      0.136000
     17 HCK6       -1.7300    0.4460    1.1750 ha        1 BPY      0.137000
     18 HCK8        1.0450    1.6810   -2.1150 ha        1 BPY      0.139500
     19 HCK9        2.2100    1.6280   -4.3120 ha        1 BPY      0.130500
     20 HC10        4.0000   -0.0580   -4.7420 ha        1 BPY      0.130000
     21 HC11        4.6270   -1.6870   -2.9570 ha        1 BPY      0.130500
     22 HC12        3.4730   -1.6310   -0.7490 ha        1 BPY      0.139500
     23 H0K1        1.5270   -0.1480    4.3260 ho        1 BPY      0.430000
     24 HOK2        3.7950   -0.3320    2.1240 ho        1 BPY      0.437000
@<TRIPOS>BOND
     1    1    2 ar  
     2    1    6 ar  
     3    1   15 1   
     4    2    3 ar  
     5    2    7 1   
     6    3    4 ar  
     7    3   14 1   
     8    4    5 ar  
     9    4   13 1   
    10    5    6 ar  
    11    5   16 1   
    12    6   17 1   
    13    7    8 ar  
    14    7   12 ar  
    15    8    9 ar  
    16    8   18 1   
    17    9   10 ar  
    18    9   19 1   
    19   10   11 ar  
    20   10   20 1   
    21   11   12 ar  
    22   11   21 1   
    23   12   22 1   
    24   13   23 1   
    25   14   24 1   
@<TRIPOS>SUBSTRUCTURE
     1 BPY         1 TEMP              0 ****  ****    0 ROOT
