@<TRIPOS>MOLECULE
molecule
   24    25     1     0     0
SMALL
bcc


@<TRIPOS>ATOM
      1 CK1          0.0000     0.0000     0.0000 ca         1 BPY      -0.114000
      2 CK2          1.3940     0.0000     0.0000 cp         1 BPY      -0.043000
      3 CK3          2.0850     0.0000     1.2120 ca         1 BPY       0.105100
      4 CK4          1.3790    -0.0090     2.4090 ca         1 BPY       0.069100
      5 CK5         -0.0050    -0.0070     2.3960 ca         1 BPY      -0.155000
      6 CK6         -0.6910    -0.0030     1.1950 ca         1 BPY      -0.125000
      7 CK7          2.1380     0.0030    -1.2830 cp         1 BPY      -0.040000
      8 CK8          1.9690     1.0500    -2.1860 ca         1 BPY      -0.105000
      9 CK9          2.6640     1.0480    -3.3780 ca         1 BPY      -0.132500
     10 CKA          3.5270     0.0100    -3.6770 ca         1 BPY      -0.124000
     11 CKB          3.6990    -1.0310    -2.7840 ca         1 BPY      -0.132500
     12 CKC          3.0140    -1.0370    -1.5860 ca         1 BPY      -0.105000
     13 OK1          2.0480    -0.0130     3.5930 oh         1 BPY      -0.517100
     14 OK2          3.4450    -0.0010     1.2210 oh         1 BPY      -0.509100
     15 HCK1        -0.5410     0.0020    -0.9380 ha         1 BPY       0.141000
     16 HCK5        -0.5540    -0.0120     3.3300 ha         1 BPY       0.139000
     17 HCK6        -1.7750    -0.0020     1.1920 ha         1 BPY       0.135000
     18 HCK8         1.2930     1.8630    -1.9530 ha         1 BPY       0.136500
     19 HCK9         2.5320     1.8620    -4.0820 ha         1 BPY       0.130000
     20 HC10         4.0690     0.0110    -4.6150 ha         1 BPY       0.128000
     21 HC11         4.3790    -1.8400    -3.0220 ha         1 BPY       0.130000
     22 HC12         3.1500    -1.8530    -0.8870 ha         1 BPY       0.136500
     23 H0K1         1.9250    -0.8440     4.0210 ho         1 BPY       0.425000
     24 HOK2         3.7570     0.8350     1.5270 ho         1 BPY       0.429000
@<TRIPOS>BOND
     1     1     2 ar
     2     1     6 ar
     3     1    15 1
     4     2     3 ar
     5     2     7 1
     6     3     4 ar
     7     3    14 1
     8     4     5 ar
     9     4    13 1
    10     5     6 ar
    11     5    16 1
    12     6    17 1
    13     7     8 ar
    14     7    12 ar
    15     8     9 ar
    16     8    18 1
    17     9    10 ar
    18     9    19 1
    19    10    11 ar
    20    10    20 1
    21    11    12 ar
    22    11    21 1
    23    12    22 1
    24    13    23 1
    25    14    24 1
@<TRIPOS>SUBSTRUCTURE
     1 BPY         1 TEMP              0 ****  ****    0 ROOT
