@<TRIPOS>MOLECULE
BPZ
   40    42     1     0     0
SMALL
bcc


@<TRIPOS>ATOM
      1 O2          0.0220    0.0710    0.3400 oh        1 BPZ     -0.498100
      2 C16         1.3890    0.0790    0.1850 ca        1 BPZ      0.121100
      3 C15         2.1570    0.0210    1.3610 ca        1 BPZ     -0.184750
      4 C14         3.5410    0.0230    1.2600 ca        1 BPZ     -0.091000
      5 C17         2.0110    0.1440   -1.0670 ca        1 BPZ     -0.184750
      6 C18         3.4040    0.1440   -1.1440 ca        1 BPZ     -0.091000
      7 C7          4.1860    0.0770    0.0120 ca        1 BPZ     -0.099800
      8 C5          5.7000    0.0570   -0.0160 c3        1 BPZ      0.057600
      9 C8          6.1510   -1.3040    0.5490 c3        1 BPZ     -0.068400
     10 C1          7.6480   -1.5240    0.4750 c3        1 BPZ     -0.078900
     11 C4          6.2400    0.1320   -1.4530 c3        1 BPZ     -0.068400
     12 C3          7.7460   -0.0200   -1.5060 c3        1 BPZ     -0.078900
     13 C2          8.1730   -1.3550   -0.9350 c3        1 BPZ     -0.075400
     14 C6          6.1830    1.2380    0.7940 ca        1 BPZ     -0.099800
     15 C13         6.0580    2.5340    0.2640 ca        1 BPZ     -0.091000
     16 C12         6.4740    3.6530    0.9740 ca        1 BPZ     -0.184750
     17 C11         7.0210    3.4840    2.2560 ca        1 BPZ      0.121100
     18 O1          7.4240    4.6250    2.9120 oh        1 BPZ     -0.498100
     19 C10         7.1340    2.2050    2.8150 ca        1 BPZ     -0.184750
     20 C9          6.7100    1.0980    2.0830 ca        1 BPZ     -0.091000
     21 HO2        -0.3780    0.1250   -0.5400 ho        1 BPZ      0.418000
     22 H15         1.6540   -0.0220    2.3360 ha        1 BPZ      0.141000
     23 H14         4.1500   -0.0070    2.1790 ha        1 BPZ      0.136000
     24 H17         1.4080    0.1960   -1.9840 ha        1 BPZ      0.141000
     25 H18         3.8670    0.2020   -2.1400 ha        1 BPZ      0.136000
     26 H8          5.8030   -1.4130    1.6080 hc        1 BPZ      0.043700
     27 H8A         5.6370   -2.1040   -0.0480 hc        1 BPZ      0.043700
     28 H1          7.8820   -2.5570    0.8430 hc        1 BPZ      0.043450
     29 H1A         8.1750   -0.7990    1.1510 hc        1 BPZ      0.043450
     30 H4          5.9440    1.1000   -1.9320 hc        1 BPZ      0.043700
     31 H4A         5.7760   -0.6990   -2.0500 hc        1 BPZ      0.043700
     32 H3          8.2280    0.8110   -0.9260 hc        1 BPZ      0.043450
     33 H3A         8.0900    0.0640   -2.5700 hc        1 BPZ      0.043450
     34 H2          9.2910   -1.4270   -0.9320 hc        1 BPZ      0.039200
     35 H2A         7.7840   -2.1830   -1.5840 hc        1 BPZ      0.039200
     36 H13         5.6070    2.6790   -0.7300 ha        1 BPZ      0.136000
     37 H12         6.3770    4.6630    0.5530 ha        1 BPZ      0.141000
     38 HO1         7.7660    4.3640    3.7790 ho        1 BPZ      0.418000
     39 H10         7.5510    2.0750    3.8230 ha        1 BPZ      0.141000
     40 H9          6.7960    0.1050    2.5510 ha        1 BPZ      0.136000
@<TRIPOS>BOND
     1    1    2 1   
     2    1   21 1   
     3    2    3 ar  
     4    2    5 ar  
     5    3    4 ar  
     6    3   22 1   
     7    4    7 ar  
     8    4   23 1   
     9    5    6 ar  
    10    5   24 1   
    11    6    7 ar  
    12    6   25 1   
    13    7    8 1   
    14    8    9 1   
    15    8   11 1   
    16    8   14 1   
    17    9   10 1   
    18    9   26 1   
    19    9   27 1   
    20   10   13 1   
    21   10   28 1   
    22   10   29 1   
    23   11   12 1   
    24   11   30 1   
    25   11   31 1   
    26   12   13 1   
    27   12   32 1   
    28   12   33 1   
    29   13   34 1   
    30   13   35 1   
    31   14   15 ar  
    32   14   20 ar  
    33   15   16 ar  
    34   15   36 1   
    35   16   17 ar  
    36   16   37 1   
    37   17   18 1   
    38   17   19 ar  
    39   18   38 1   
    40   19   20 ar  
    41   19   39 1   
    42   20   40 1   
@<TRIPOS>SUBSTRUCTURE
     1 BPZ         1 TEMP              0 ****  ****    0 ROOT
