@<TRIPOS>MOLECULE
molecule
   40    42     1     0     0
SMALL
bcc


@<TRIPOS>ATOM
      1 O2           0.0000     0.0000     0.0000 oh         1 BPZ      -0.522600
      2 C16          1.3590     0.0000     0.0000 ca         1 BPZ       0.101100
      3 C15          2.0540     0.0000     1.2010 ca         1 BPZ      -0.152250
      4 C14          3.4350     0.0000     1.1990 ca         1 BPZ      -0.113750
      5 C17          2.0550    -0.0070    -1.2000 ca         1 BPZ      -0.152250
      6 C18          3.4370    -0.0080    -1.1970 ca         1 BPZ      -0.113750
      7 C7           4.1260    -0.0000     0.0020 ca         1 BPZ      -0.076800
      8 C5           5.6330    -0.0000     0.0010 c3         1 BPZ       0.034600
      9 C8           6.1420    -1.3090     0.6100 c3         1 BPZ      -0.067900
     10 C1           7.6730    -1.3090     0.6110 c3         1 BPZ      -0.088900
     11 C4           6.1440     0.1280    -1.4350 c3         1 BPZ      -0.067900
     12 C3           7.6740     0.1270    -1.4340 c3         1 BPZ      -0.088900
     13 C2           8.1830    -1.1800    -0.8260 c3         1 BPZ      -0.076400
     14 C6           6.1350     1.1620     0.8180 ca         1 BPZ      -0.076800
     15 C13          5.9860     2.4540     0.3460 ca         1 BPZ      -0.113750
     16 C12          6.4450     3.5210     1.0920 ca         1 BPZ      -0.152250
     17 C11          7.0560     3.2970     2.3180 ca         1 BPZ       0.101100
     18 O1           7.5070     4.3460     3.0540 oh         1 BPZ      -0.522600
     19 C10          7.2040     2.0020     2.7900 ca         1 BPZ      -0.152250
     20 C9           6.7390     0.9370     2.0420 ca         1 BPZ      -0.113750
     21 HO2         -0.3140     0.8890    -0.0040 ho         1 BPZ       0.418000
     22 H15          1.5130     0.0000     2.1400 ha         1 BPZ       0.139500
     23 H14          3.9770     0.0030     2.1370 ha         1 BPZ       0.139500
     24 H17          1.5150    -0.0130    -2.1390 ha         1 BPZ       0.139500
     25 H18          3.9800    -0.0100    -2.1340 ha         1 BPZ       0.139500
     26 H8           5.7830    -2.1440     0.0210 hc         1 BPZ       0.047450
     27 H8A          5.7820    -1.3960     1.6280 hc         1 BPZ       0.047450
     28 H1           8.0330    -2.2360     1.0390 hc         1 BPZ       0.048450
     29 H1A          8.0330    -0.4710     1.1960 hc         1 BPZ       0.048450
     30 H4           5.7840    -0.7100    -2.0200 hc         1 BPZ       0.047450
     31 H4A          5.7840     1.0550    -1.8630 hc         1 BPZ       0.047450
     32 H3           8.0330     0.9620    -0.8460 hc         1 BPZ       0.048450
     33 H3A          8.0330     0.2150    -2.4530 hc         1 BPZ       0.048450
     34 H2           9.2670    -1.1780    -0.8250 hc         1 BPZ       0.040700
     35 H2A          7.8200    -2.0150    -1.4130 hc         1 BPZ       0.040700
     36 H13          5.5090     2.6280    -0.6110 ha         1 BPZ       0.139500
     37 H12          6.3280     4.5320     0.7210 ha         1 BPZ       0.139500
     38 HO1          6.8220     4.6450     3.6280 ho         1 BPZ       0.418000
     39 H10          7.6790     1.8240     3.7470 ha         1 BPZ       0.139500
     40 H9           6.8540    -0.0750     2.4100 ha         1 BPZ       0.139500
@<TRIPOS>BOND
     1     1     2 1
     2     1    21 1
     3     2     5 ar
     4     2     3 ar
     5     3     4 ar
     6     3    22 1
     7     4     7 ar
     8     4    23 1
     9     5     6 ar
    10     5    24 1
    11     6     7 ar
    12     6    25 1
    13     7     8 1
    14     8    14 1
    15     8    11 1
    16     8     9 1
    17     9    10 1
    18     9    26 1
    19     9    27 1
    20    10    13 1
    21    10    28 1
    22    10    29 1
    23    12    11 1
    24    11    30 1
    25    11    31 1
    26    12    13 1
    27    12    32 1
    28    12    33 1
    29    13    34 1
    30    13    35 1
    31    15    14 ar
    32    14    20 ar
    33    15    16 ar
    34    15    36 1
    35    16    17 ar
    36    16    37 1
    37    17    18 1
    38    17    19 ar
    39    18    38 1
    40    20    19 ar
    41    19    39 1
    42    20    40 1
@<TRIPOS>SUBSTRUCTURE
     1 BPZ         1 TEMP              0 ****  ****    0 ROOT
