@<TRIPOS>MOLECULE
BQ1
   68    72     1     0     0
SMALL
bcc


@<TRIPOS>ATOM
      1 Br           0.0000     0.0000     0.0000 br         1 BQ1      -0.134100
      2 O02          5.0230    -0.8290     4.9850 oh         1 BQ1      -0.599800
      3 N04          6.0490    -4.8600     4.0530 n3         1 BQ1      -0.541600
      4 N05          6.0070     0.0000     0.0000 nb         1 BQ1      -0.667000
      5 C06          6.3570    -1.1150     4.5620 c3         1 BQ1       0.247100
      6 C07          6.8510     0.0020     3.6410 c3         1 BQ1       0.051900
      7 C09          7.2560    -1.2070     5.7680 ca         1 BQ1      -0.110300
      8 C10          6.0400     0.0010     2.3710 ca         1 BQ1      -0.209600
      9 C12          6.6970     1.3310     4.3350 ca         1 BQ1      -0.076300
     10 C13          8.6240    -1.4870     5.6090 ca         1 BQ1      -0.012000
     11 C14          6.7500    -1.0130     7.0150 ca         1 BQ1      -0.094000
     12 C15          4.6790     0.0000     2.4300 ca         1 BQ1      -0.034000
     13 C16          9.4550    -1.5700     6.7550 ca         1 BQ1      -0.036000
     14 C17          6.6840     0.0000     1.1280 ca         1 BQ1       0.641600
     15 C18          7.8100     2.1070     4.5970 ca         1 BQ1      -0.098500
     16 C19          5.4410     1.7750     4.7030 ca         1 BQ1      -0.098500
     17 C20          7.5660    -1.0930     8.1420 ca         1 BQ1      -0.100000
     18 C21          9.1860    -1.6890     4.3350 ca         1 BQ1      -0.135000
     19 C22          3.9570    -0.0000     1.2190 ca         1 BQ1      -0.183300
     20 C23          8.8940    -1.3690     8.0270 ca         1 BQ1      -0.084000
     21 C24          4.6680     0.0000    -0.0060 ca         1 BQ1       0.417600
     22 C25          5.8340    -5.9740     4.9870 c3         1 BQ1       0.180100
     23 C26          5.1370    -4.9520     2.9060 c3         1 BQ1       0.180100
     24 C27         10.8230    -1.8510     6.5960 ca         1 BQ1      -0.083000
     25 C28          7.6680     3.3250     5.2340 ca         1 BQ1      -0.102500
     26 C29          5.2990     2.9940     5.3390 ca         1 BQ1      -0.102500
     27 C30         10.5140    -1.9600     4.2200 ca         1 BQ1      -0.086000
     28 C31          6.4130     3.7690     5.6070 ca         1 BQ1      -0.103000
     29 C32         11.3310    -2.0400     5.3470 ca         1 BQ1      -0.102000
     30 C33          2.5540    -0.0000     1.2070 ca         1 BQ1      -0.046000
     31 C34          3.9500    -0.0000    -1.2130 ca         1 BQ1      -0.151300
     32 C35          1.8910     0.0000     0.0160 ca         1 BQ1       0.021100
     33 C36          2.5890    -0.0000    -1.1910 ca         1 BQ1      -0.070000
     34 C37          8.6480     0.0000    -0.2090 c3         1 BQ1       0.254700
     35 H02          4.7200    -1.5140     5.5580 ho         1 BQ1       0.403000
     36 H371         9.7250     0.0220    -0.1010 h1         1 BQ1       0.002033
     37 H372         8.3210     0.8770    -0.7540 h1         1 BQ1       0.002033
     38 H373         8.3570    -0.8920    -0.7510 h1         1 BQ1       0.002033
     39 H111         6.5110    -3.5670     5.6370 h1         1 BQ1       0.013200
     40 H112         4.8690    -3.4070     4.9980 h1         1 BQ1       0.013200
     41 H251         4.8280    -5.9240     5.3840 h1         1 BQ1       0.002033
     42 H252         5.9690    -6.9140     4.4640 h1         1 BQ1       0.002033
     43 H253         6.5470    -5.9070     5.7990 h1         1 BQ1       0.002033
     44 H261         4.9380    -5.9930     2.6860 h1         1 BQ1       0.002033
     45 H262         5.5930    -4.4810     2.0440 h1         1 BQ1       0.002033
     46 H263         4.2070    -4.4480     3.1430 h1         1 BQ1       0.002033
     47 H07          7.8950    -0.1620     3.4020 hc         1 BQ1       0.078700
     48 H081         7.3880    -2.6540     3.4730 hc         1 BQ1       0.053200
     49 H082         5.7190    -2.3860     2.9510 hc         1 BQ1       0.053200
     50 H14          5.6960    -0.7920     7.1350 ha         1 BQ1       0.113000
     51 H15          4.1770     0.2420     3.3590 ha         1 BQ1       0.158000
     52 H18          8.7940     1.7600     4.3040 ha         1 BQ1       0.121500
     53 H19          4.5690     1.1690     4.4930 ha         1 BQ1       0.121500
     54 H21          8.5640    -1.6300     3.4500 ha         1 BQ1       0.145000
     55 H20          7.1370    -0.9340     9.1240 ha         1 BQ1       0.102000
     56 H23          9.5160    -1.4280     8.9120 ha         1 BQ1       0.106000
     57 H27         11.4700    -1.9160     7.4620 ha         1 BQ1       0.106000
     58 H28          8.5410     3.9320     5.4410 ha         1 BQ1       0.100500
     59 H29          4.3150     3.3420     5.6290 ha         1 BQ1       0.100500
     60 H30         10.9440    -2.1140     3.2380 ha         1 BQ1       0.102000
     61 H33          2.0050    -0.1150     2.1330 ha         1 BQ1       0.119000
     62 H34          4.4780    -0.0010    -2.1590 ha         1 BQ1       0.120000
     63 H32         12.3860    -2.2570     5.2270 ha         1 BQ1       0.102000
     64 H31          6.3020     4.7240     6.1060 ha         1 BQ1       0.100000
     65 H36          2.0410    -0.0010    -2.1250 ha         1 BQ1       0.116000
     66 O03          8.0400     0.0010     1.0840 os         1 BQ1      -0.437100
     67 C08          6.3790    -2.4460     3.8080 c3         1 BQ1      -0.105400
     68 C11          5.9080    -3.5670     4.7370 c3         1 BQ1       0.143800
@<TRIPOS>BOND
     1     1    32 1   
     2     2     5 1   
     3     2    35 1   
     4     3    22 1   
     5     3    23 1   
     6     3    68 1   
     7     4    14 ar  
     8     4    21 ar  
     9     5     6 1   
    10     5     7 1   
    11     5    67 1   
    12     6     8 1   
    13     6     9 1   
    14     6    47 1   
    15     7    10 ar  
    16     7    11 ar  
    17     8    12 ar  
    18     8    14 ar  
    19     9    15 ar  
    20     9    16 ar  
    21    10    13 ar  
    22    10    18 ar  
    23    11    17 ar  
    24    11    50 1   
    25    12    19 ar  
    26    12    51 1   
    27    13    20 ar  
    28    13    24 ar  
    29    14    66 1   
    30    15    25 ar  
    31    15    52 1   
    32    16    26 ar  
    33    16    53 1   
    34    17    20 ar  
    35    17    55 1   
    36    18    27 ar  
    37    18    54 1   
    38    19    21 ar  
    39    19    30 ar  
    40    20    56 1   
    41    21    31 ar  
    42    22    41 1   
    43    22    42 1   
    44    22    43 1   
    45    23    44 1   
    46    23    45 1   
    47    23    46 1   
    48    24    29 ar  
    49    24    57 1   
    50    25    28 ar  
    51    25    58 1   
    52    26    28 ar  
    53    26    59 1   
    54    27    29 ar  
    55    27    60 1   
    56    28    64 1   
    57    29    63 1   
    58    30    32 ar  
    59    30    61 1   
    60    31    33 ar  
    61    31    62 1   
    62    32    33 ar  
    63    33    65 1   
    64    34    36 1   
    65    34    37 1   
    66    34    38 1   
    67    34    66 1   
    68    39    68 1   
    69    40    68 1   
    70    48    67 1   
    71    49    67 1   
    72    67    68 1   
@<TRIPOS>SUBSTRUCTURE
     1 BQ1         1 TEMP              0 ****  ****    0 ROOT
