@<TRIPOS>MOLECULE
molecule
   27    28     1     0     0
SMALL
bcc


@<TRIPOS>ATOM
      1 N1           0.0000     0.0000     0.0000 n          1 BQ2      -0.499800
      2 C4           0.0000    -1.5650     1.8610 ca         1 BQ2      -0.102300
      3 C5           1.4720     0.0000     0.0000 c3         1 BQ2       0.110000
      4 C6           1.2000    -1.0350     2.2570 ca         1 BQ2      -0.062300
      5 C8           1.9420     0.0000     1.4540 c3         1 BQ2      -0.058100
      6 C13         -0.0780    -2.9130     3.8490 ca         1 BQ2      -0.127000
      7 C12          1.7710    -1.4520     3.4540 ca         1 BQ2      -0.127000
      8 C14          1.1360    -2.3860     4.2460 ca         1 BQ2      -0.122000
      9 C11         -0.6370    -2.5000     2.6650 ca         1 BQ2      -0.125000
     10 C3          -0.6740    -1.1710     0.5710 c3         1 BQ2       0.151300
     11 C2          -0.7000     1.0380    -0.4990 c          1 BQ2       0.666100
     12 O7          -0.1180     1.9960    -0.9600 o          1 BQ2      -0.573100
     13 C9          -2.2070     1.0070    -0.4840 c3         1 BQ2       0.068400
     14 O10         -2.7140     2.2110    -1.0640 oh         1 BQ2      -0.574800
     15 H1           1.8270    -0.9010    -0.4870 h1         1 BQ2       0.068700
     16 H2           1.8270     0.9010    -0.4870 h1         1 BQ2       0.068700
     17 H3           1.7410     0.9750     1.8800 hc         1 BQ2       0.064200
     18 H4           2.9980    -0.2410     1.4740 hc         1 BQ2       0.064200
     19 H5          -0.5830    -3.6470     4.4660 ha         1 BQ2       0.132000
     20 H6           2.7230    -1.0400     3.7680 ha         1 BQ2       0.133000
     21 H7           1.5870    -2.7030     5.1780 ha         1 BQ2       0.131000
     22 H8          -1.5890    -2.9130     2.3520 ha         1 BQ2       0.126000
     23 H9          -1.7110    -0.9290     0.7670 h1         1 BQ2       0.054200
     24 H10         -0.6170    -1.9950    -0.1300 h1         1 BQ2       0.054200
     25 H11         -2.5560     0.9230     0.5380 h1         1 BQ2       0.037200
     26 H12         -2.5560     0.1560    -1.0560 h1         1 BQ2       0.037200
     27 H13         -3.6560     2.1850    -1.0690 ho         1 BQ2       0.404000
@<TRIPOS>BOND
     1     8     6 ar
     2     8     7 ar
     3     6     9 ar
     4     7     4 ar
     5     9     2 ar
     6     4     2 ar
     7     4     5 1
     8     2    10 1
     9     5     3 1
    10    10     1 1
    11     3     1 1
    12     1    11 1
    13    11    12 2
    14    11    13 1
    15    13    14 1
    16     3    15 1
    17     3    16 1
    18     5    17 1
    19     5    18 1
    20     6    19 1
    21     7    20 1
    22     8    21 1
    23     9    22 1
    24    10    23 1
    25    10    24 1
    26    13    25 1
    27    13    26 1
    28    14    27 1
@<TRIPOS>SUBSTRUCTURE
     1 BQ2         1 TEMP              0 ****  ****    0 ROOT
