@<TRIPOS>MOLECULE
BQ2
   27    28     1     0     0
SMALL
bcc


@<TRIPOS>ATOM
      1 N1           0.0000     0.0000     0.0000 n          1 BQ2      -0.170800
      2 C4           0.0000    -1.5650     1.8610 ca         1 BQ2      -0.109300
      3 C5           1.4720     0.0000     0.0000 c3         1 BQ2       0.054000
      4 C6           1.2000    -1.0350     2.2570 ca         1 BQ2      -0.069300
      5 C8           1.9420     0.0000     1.4540 c3         1 BQ2       0.011900
      6 C13         -0.0780    -2.9130     3.8490 ca         1 BQ2      -0.101000
      7 C12          1.7710    -1.4520     3.4540 ca         1 BQ2      -0.100000
      8 C14          1.1360    -2.3860     4.2460 ca         1 BQ2      -0.094000
      9 C11         -0.6370    -2.5000     2.6650 ca         1 BQ2      -0.096000
     10 C3          -0.6740    -1.1710     0.5710 c3         1 BQ2       0.112300
     11 C2          -0.7000     1.0380    -0.4990 c          1 BQ2       0.581100
     12 O7          -0.1180     1.9960    -0.9600 o          1 BQ2      -0.614100
     13 C9          -2.2070     1.0070    -0.4840 c3         1 BQ2       0.154400
     14 O10         -2.7140     2.2110    -1.0640 oh         1 BQ2      -0.552800
     15 H1           1.8270    -0.9010    -0.4870 h1         1 BQ2       0.039700
     16 H2           1.8270     0.9010    -0.4870 h1         1 BQ2       0.039700
     17 H3           1.7410     0.9750     1.8800 hc         1 BQ2       0.032200
     18 H4           2.9980    -0.2410     1.4740 hc         1 BQ2       0.032200
     19 H5          -0.5830    -3.6470     4.4660 ha         1 BQ2       0.105000
     20 H6           2.7230    -1.0400     3.7680 ha         1 BQ2       0.107000
     21 H7           1.5870    -2.7030     5.1780 ha         1 BQ2       0.104000
     22 H8          -1.5890    -2.9130     2.3520 ha         1 BQ2       0.102000
     23 H9          -1.7110    -0.9290     0.7670 h1         1 BQ2       0.025700
     24 H10         -0.6170    -1.9950    -0.1300 h1         1 BQ2       0.025700
     25 H11         -2.5560     0.9230     0.5380 h1         1 BQ2      -0.001800
     26 H12         -2.5560     0.1560    -1.0560 h1         1 BQ2      -0.001800
     27 H13         -3.6560     2.1850    -1.0690 ho         1 BQ2       0.385000
@<TRIPOS>BOND
     1     1     3 1   
     2     1    10 1   
     3     1    11 1   
     4     2     4 ar  
     5     2     9 ar  
     6     2    10 1   
     7     3     5 1   
     8     3    15 1   
     9     3    16 1   
    10     4     5 1   
    11     4     7 ar  
    12     5    17 1   
    13     5    18 1   
    14     6     8 ar  
    15     6     9 ar  
    16     6    19 1   
    17     7     8 ar  
    18     7    20 1   
    19     8    21 1   
    20     9    22 1   
    21    10    23 1   
    22    10    24 1   
    23    11    12 2   
    24    11    13 1   
    25    13    14 1   
    26    13    25 1   
    27    13    26 1   
    28    14    27 1   
@<TRIPOS>SUBSTRUCTURE
     1 BQ2         1 TEMP              0 ****  ****    0 ROOT
