@<TRIPOS>MOLECULE
molecule
   22    22     1     0     0
SMALL
bcc


@<TRIPOS>ATOM
      1 C10          0.0000     0.0000     0.0000 ca         1 BQ4      -0.095000
      2 C13          1.3890    -0.0000     2.4050 ca         1 BQ4       0.074100
      3 C15          2.0910     0.0000     1.2110 ca         1 BQ4      -0.110000
      4 C02          1.3490    -0.0020    -5.0060 c          1 BQ4       0.848800
      5 C04          2.0860    -0.0010    -3.7210 ce         1 BQ4       0.143900
      6 C06          1.4080    -0.0000    -2.5510 cf         1 BQ4      -0.358200
      7 C09          1.3970     0.0000     0.0000 ca         1 BQ4      -0.132600
      8 C11         -0.6880     0.0000     1.1960 ca         1 BQ4      -0.139000
      9 C12          0.0000    -0.0000     2.3950 ca         1 BQ4      -0.148000
     10 O01          0.1350    -0.0020    -5.0070 o          1 BQ4      -0.817300
     11 O03          2.0240    -0.0020    -6.1700 o          1 BQ4      -0.817300
     12 O05          3.4390    -0.0000    -3.7190 oh         1 BQ4      -0.505100
     13 O08          3.3560     0.0000    -1.2770 o          1 BQ4      -0.549100
     14 O14          2.0600    -0.0000     3.5870 oh         1 BQ4      -0.528100
     15 H1          -0.5420     0.0000    -0.9380 ha         1 BQ4       0.156000
     16 H2           3.1740    -0.0000     1.2170 ha         1 BQ4       0.158000
     17 H4           0.3250     0.0000    -2.5530 ha         1 BQ4       0.156000
     18 H6          -1.7710     0.0000     1.1950 ha         1 BQ4       0.126000
     19 H7          -0.5460    -0.0000     3.3310 ha         1 BQ4       0.126000
     20 H9           3.7550    -0.7500    -4.1960 ho         1 BQ4       0.431000
     21 H10          2.2540     0.8880     3.8380 ho         1 BQ4       0.410000
     22 C07          2.1380    -0.0000    -1.2790 c          1 BQ4       0.571900
@<TRIPOS>BOND
     1    13    22 2
     2     1     8 ar
     3     1     7 ar
     4     8     9 ar
     5    12     5 1
     6    22     7 1
     7    22     6 1
     8     7     3 ar
     9     9     2 ar
    10     3     2 ar
    11     5     6 2
    12     5     4 1
    13     2    14 1
    14    10     4 1
    15     4    11 1
    16     1    15 1
    17     3    16 1
    18     6    17 1
    19     8    18 1
    20     9    19 1
    21    12    20 1
    22    14    21 1
@<TRIPOS>SUBSTRUCTURE
     1 BQ4         1 TEMP              0 ****  ****    0 ROOT
