@<TRIPOS>MOLECULE
BQ5
   32    34     1     0     0
SMALL
bcc


@<TRIPOS>ATOM
      1 N1           0.0000     0.0000     0.0000 na         1 BQ5       0.748300
      2 C4           0.6810     0.0010     2.0770 cc         1 BQ5      -0.327600
      3 C5           1.8090     0.0000     1.2430 cc         1 BQ5       0.264600
      4 C6          -0.8250     0.0050    -1.1330 ca         1 BQ5      -0.221200
      5 C7           0.2790     0.0010     3.5360 c3         1 BQ5       0.082900
      6 C8          -1.6710     0.0010     2.1360 c3         1 BQ5       0.082900
      7 C13         -0.4380     0.6990    -2.2720 ca         1 BQ5      -0.076000
      8 C15         -2.8380    -0.6810    -2.2410 ca         1 BQ5      -0.082000
      9 C12         -2.0280    -0.6880    -1.1220 ca         1 BQ5      -0.076000
     10 C16         -2.4520     0.0160    -3.3710 ca         1 BQ5      -0.059000
     11 C14         -1.2520     0.7030    -3.3880 ca         1 BQ5      -0.082000
     12 N2           1.4000     0.0000     0.0000 nd         1 BQ5      -0.636800
     13 C3          -0.4170     0.0000     1.2890 cd         1 BQ5      -0.260600
     14 C11         -1.2030    -0.4340     3.5430 c3         1 BQ5      -0.021400
     15 C9           3.2450     0.0010     1.7000 c3         1 BQ5      -0.025500
     16 N10          3.7110    -1.3850     1.8490 nz         1 BQ5       0.074400
     17 H1           0.3510     1.0110     3.9210 hc         1 BQ5       0.020200
     18 H2           0.8660    -0.7420     4.0630 hc         1 BQ5       0.020200
     19 H3          -2.3890    -0.7100     1.7430 hc         1 BQ5       0.034700
     20 H4          -2.0980     0.9960     2.1730 hc         1 BQ5       0.034700
     21 H5           0.5030     1.2370    -2.2850 ha         1 BQ5       0.119500
     22 H6          -3.7780    -1.2200    -2.2320 ha         1 BQ5       0.119500
     23 H7          -2.3300    -1.2340    -0.2370 ha         1 BQ5       0.119500
     24 H8          -3.0890     0.0200    -4.2470 ha         1 BQ5       0.118000
     25 H9          -0.9520     1.2460    -4.2760 ha         1 BQ5       0.119500
     26 H10         -1.2620    -1.5130     3.6260 hc         1 BQ5       0.036200
     27 H11         -1.7420     0.1320     4.2930 hc         1 BQ5       0.036200
     28 H12          3.3200     0.5110     2.6530 hx         1 BQ5       0.083200
     29 H13          3.8570     0.5110     0.9670 hx         1 BQ5       0.083200
     30 H14          3.3080    -1.7860     2.6730 hn         1 BQ5       0.223467
     31 H15          4.7090    -1.3950     1.9270 hn         1 BQ5       0.223467
     32 H103         3.4340    -1.9180     1.0480 hn         1 BQ5       0.223467
@<TRIPOS>BOND
     1     1     4 1   
     2     1    12 1   
     3     1    13 1   
     4     2     3 1   
     5     2     5 1   
     6     2    13 2   
     7     3    12 2   
     8     3    15 1   
     9     4     7 ar  
    10     4     9 ar  
    11     5    14 1   
    12     5    17 1   
    13     5    18 1   
    14     6    13 1   
    15     6    14 1   
    16     6    19 1   
    17     6    20 1   
    18     7    11 ar  
    19     7    21 1   
    20     8     9 ar  
    21     8    10 ar  
    22     8    22 1   
    23     9    23 1   
    24    10    11 ar  
    25    10    24 1   
    26    11    25 1   
    27    14    26 1   
    28    14    27 1   
    29    15    16 1   
    30    15    28 1   
    31    15    29 1   
    32    16    30 1   
    33    16    31 1   
    34    16    32 1   
@<TRIPOS>SUBSTRUCTURE
     1 BQ5         1 TEMP              0 ****  ****    0 ROOT
