@<TRIPOS>MOLECULE
molecule
   32    34     1     0     0
SMALL
bcc


@<TRIPOS>ATOM
      1 N1           0.0000     0.0000     0.0000 na         1 BQ5       0.217300
      2 C4           0.6810     0.0010     2.0770 cc         1 BQ5      -0.325600
      3 C5           1.8090     0.0000     1.2430 cd         1 BQ5       0.252600
      4 C6          -0.8250     0.0050    -1.1330 ca         1 BQ5      -0.016200
      5 C7           0.2790     0.0010     3.5360 c3         1 BQ5      -0.006100
      6 C8          -1.6710     0.0010     2.1360 c3         1 BQ5      -0.011100
      7 C13         -0.4380     0.6990    -2.2720 ca         1 BQ5      -0.119500
      8 C15         -2.8380    -0.6810    -2.2410 ca         1 BQ5      -0.108000
      9 C12         -2.0280    -0.6880    -1.1220 ca         1 BQ5      -0.119500
     10 C16         -2.4520     0.0160    -3.3710 ca         1 BQ5      -0.105000
     11 C14         -1.2520     0.7030    -3.3880 ca         1 BQ5      -0.108000
     12 N2           1.4000     0.0000     0.0000 nc         1 BQ5      -0.473800
     13 C3          -0.4170     0.0000     1.2890 cd         1 BQ5      -0.054600
     14 C11         -1.2030    -0.4340     3.5430 c3         1 BQ5      -0.074400
     15 C9           3.2450     0.0010     1.7000 c3         1 BQ5       0.104500
     16 N10          3.7110    -1.3850     1.8490 nz         1 BQ5      -0.811600
     17 H1           0.3510     1.0110     3.9210 hc         1 BQ5       0.054700
     18 H2           0.8660    -0.7420     4.0630 hc         1 BQ5       0.054700
     19 H3          -2.3890    -0.7100     1.7430 hc         1 BQ5       0.075200
     20 H4          -2.0980     0.9960     2.1730 hc         1 BQ5       0.075200
     21 H5           0.5030     1.2370    -2.2850 ha         1 BQ5       0.145500
     22 H6          -3.7780    -1.2200    -2.2320 ha         1 BQ5       0.151500
     23 H7          -2.3300    -1.2340    -0.2370 ha         1 BQ5       0.145500
     24 H8          -3.0890     0.0200    -4.2470 ha         1 BQ5       0.151000
     25 H9          -0.9520     1.2460    -4.2760 ha         1 BQ5       0.151500
     26 H10         -1.2620    -1.5130     3.6260 hc         1 BQ5       0.070700
     27 H11         -1.7420     0.1320     4.2930 hc         1 BQ5       0.070700
     28 H12          3.3200     0.5110     2.6530 hx         1 BQ5       0.118700
     29 H13          3.8570     0.5110     0.9670 hx         1 BQ5       0.118700
     30 H14          3.3080    -1.7860     2.6730 hn         1 BQ5       0.457467
     31 H15          4.7090    -1.3950     1.9270 hn         1 BQ5       0.457467
     32 H103         3.4340    -1.9180     1.0480 hn         1 BQ5       0.457467
@<TRIPOS>BOND
     1    10     8 ar
     2    10    11 ar
     3     8     9 ar
     4    11     7 ar
     5     9     4 ar
     6     7     4 ar
     7     4     1 1
     8     1    12 1
     9     1    13 1
    10     6    13 1
    11     6    14 1
    12    12     3 2
    13    13     2 2
    14     3     2 1
    15     3    15 1
    16     2     5 1
    17    14     5 1
    18    16    15 1
    19     5    17 1
    20     5    18 1
    21     6    19 1
    22     6    20 1
    23     7    21 1
    24     8    22 1
    25     9    23 1
    26    10    24 1
    27    11    25 1
    28    14    26 1
    29    14    27 1
    30    15    28 1
    31    15    29 1
    32    16    30 1
    33    16    31 1
    34    32    16 1
@<TRIPOS>SUBSTRUCTURE
     1 BQ5         1 TEMP              0 ****  ****    0 ROOT
