@<TRIPOS>MOLECULE
BQ7
   23    23     1     0     0
SMALL
bcc


@<TRIPOS>ATOM
      1 C            0.0000     0.0000     0.0000 c          1 BQ7       0.928600
      2 N           -2.9320     0.2800    -0.2200 nz         1 BQ7       0.046400
      3 O            1.3420     0.0000     0.0000 o          1 BQ7      -0.814800
      4 O1          -0.6040     0.0000     1.0460 o          1 BQ7      -0.814800
      5 CA          -0.7530     0.0060    -1.3050 c3         1 BQ7       0.266600
      6 CB          -2.1430    -0.5990    -1.0940 c3         1 BQ7      -0.027200
      7 CG          -2.8370    -0.7370    -2.4250 ca         1 BQ7      -0.168300
      8 FR          -0.8810     1.3210    -1.7630 f          1 BQ7      -0.203800
      9 FS          -0.0540    -0.7510    -2.2500 f          1 BQ7      -0.203800
     10 CZ          -4.1110    -0.9910    -4.8660 ca         1 BQ7      -0.068000
     11 CD1         -2.8700    -1.9630    -3.0620 ca         1 BQ7      -0.075500
     12 CD2         -3.4460     0.3600    -3.0040 ca         1 BQ7      -0.075500
     13 CE1         -3.5060    -2.0900    -4.2830 ca         1 BQ7      -0.082000
     14 CE2         -4.0830     0.2320    -4.2240 ca         1 BQ7      -0.082000
     15 HB          -2.0460    -1.5740    -0.6330 hx         1 BQ7       0.108700
     16 HZ          -4.6100    -1.0910    -5.8220 ha         1 BQ7       0.112000
     17 HD1         -2.3960    -2.8240    -2.6060 ha         1 BQ7       0.109000
     18 HD2         -3.4250     1.3200    -2.5030 ha         1 BQ7       0.109000
     19 HE1         -3.5300    -3.0510    -4.7840 ha         1 BQ7       0.114500
     20 HE2         -4.5580     1.0930    -4.6800 ha         1 BQ7       0.114500
     21 HNA         -2.7720     0.0300     0.7360 hn         1 BQ7       0.235133
     22 H2          -3.9040     0.1760    -0.4340 hn         1 BQ7       0.235133
     23 HN          -2.6570     1.2310    -0.3670 hn         1 BQ7       0.235133
@<TRIPOS>BOND
     1     1     3 1   
     2     1     4 1   
     3     1     5 1   
     4     2     6 1   
     5     2    21 1   
     6     2    22 1   
     7     2    23 1   
     8     5     6 1   
     9     5     8 1   
    10     5     9 1   
    11     6     7 1   
    12     6    15 1   
    13     7    11 ar  
    14     7    12 ar  
    15    10    13 ar  
    16    10    14 ar  
    17    10    16 1   
    18    11    13 ar  
    19    11    17 1   
    20    12    14 ar  
    21    12    18 1   
    22    13    19 1   
    23    14    20 1   
@<TRIPOS>SUBSTRUCTURE
     1 BQ7         1 TEMP              0 ****  ****    0 ROOT
