@<TRIPOS>MOLECULE
molecule
   43    44     1     0     0
SMALL
bcc


@<TRIPOS>ATOM
      1 N            0.0000     0.0000     0.0000 nu         1 BQ8      -0.840200
      2 CA           1.4650     0.0000     0.0000 c3         1 BQ8       0.172500
      3 C            1.9670     1.2300    -0.7110 c          1 BQ8       0.637100
      4 O            1.1790     2.0280    -1.1720 o          1 BQ8      -0.538100
      5 CB           1.9750     0.0000     1.4420 c3         1 BQ8      -0.134100
      6 CAI          7.6430     7.3350    -4.2330 ca         1 BQ8      -0.158000
      7 CAJ          5.8390     5.7740    -4.5080 ca         1 BQ8      -0.119500
      8 CAK          6.8730     6.0660    -2.3440 ca         1 BQ8      -0.119500
      9 CAP         -0.6880    -1.1860     0.1040 c2         1 BQ8       0.698100
     10 CAQ          2.9040     5.5770    -3.2220 c          1 BQ8       0.489600
     11 CAS          6.7020     6.7140    -5.0420 ca         1 BQ8       0.121100
     12 CAT          7.7280     7.0100    -2.8870 ca         1 BQ8       0.121100
     13 CAU          5.9170     5.4480    -3.1530 ca         1 BQ8      -0.011000
     14 CAV          3.7550     2.5760    -1.4890 cc         1 BQ8       0.548300
     15 CAW          3.6120     4.5150    -2.6080 cd         1 BQ8       0.302800
     16 CAX          4.9910     4.4540    -2.5750 cc         1 BQ8       0.003600
     17 NAC         -2.0620    -1.1850     0.1100 nz         1 BQ8      -0.805600
     18 NAD         -0.0360    -2.3110     0.1970 n2         1 BQ8      -0.799100
     19 NAL          3.0030     3.4860    -2.0140 nd         1 BQ8      -0.653000
     20 NAM          3.2920     1.4430    -0.8340 ns         1 BQ8      -0.516400
     21 OAE          3.5060     6.5410    -3.6510 o          1 BQ8      -0.506100
     22 SAO          5.4510     2.9780    -1.7290 ss         1 BQ8      -0.190300
     23 H1          -0.5000     0.8660    -0.0350 hn         1 BQ8       0.476800
     24 H2           1.8260    -0.8850    -0.5100 h1         1 BQ8       0.103700
     25 H3           1.2110    -0.1700     2.1920 hc         1 BQ8       0.077367
     26 H4           2.7210     0.7550     1.6580 hc         1 BQ8       0.077367
     27 H5           2.3620    -0.9000     0.9790 hc         1 BQ8       0.077367
     28 H6           1.0470     6.3770    -3.8890 hc         1 BQ8       0.064700
     29 H7           1.1210     4.6100    -3.8690 hc         1 BQ8       0.064700
     30 H8           0.9620     5.5050    -2.3520 hc         1 BQ8       0.064700
     31 H9           8.3150     8.0730    -4.6550 ha         1 BQ8       0.158000
     32 H10          5.1010     5.2930    -5.1400 ha         1 BQ8       0.146500
     33 H11          6.9390     5.8150    -1.2920 ha         1 BQ8       0.146500
     34 H12         -2.3940    -0.3170     0.4800 hn         1 BQ8       0.470800
     35 H13         -2.3940    -1.9390     0.6790 hn         1 BQ8       0.470800
     36 H14         -0.5360    -3.1750     0.2720 hn         1 BQ8       0.441400
     37 H15          3.9420     0.7660    -0.4860 hn         1 BQ8       0.343500
     38 H16          7.2410     6.5080    -6.8470 ho         1 BQ8       0.425000
     39 H17          8.2800     8.4020    -1.7250 ho         1 BQ8       0.425000
     40 OAG          6.6260     7.0330    -6.3610 oh         1 BQ8      -0.515100
     41 CAA          1.4030     5.5130    -3.3410 c3         1 BQ8      -0.175100
     42 HAC3        -2.4000    -1.3000    -0.8250 hn         1 BQ8       0.470800
     43 OAH          8.6530     7.6210    -2.0990 oh         1 BQ8      -0.515100
@<TRIPOS>BOND
     1    43    12 1
     2    12     6 ar
     3    12     8 ar
     4     6    11 ar
     5     8    13 ar
     6    11    40 1
     7    11     7 ar
     8    13     7 ar
     9    13    16 1
    10    41    10 1
    11    16    15 2
    12    16    22 1
    13    10    15 1
    14    10    21 2
    15    15    19 1
    16    22    14 1
    17    19    14 2
    18    14    20 1
    19     4     3 2
    20    20     3 1
    21     5     2 1
    22     3     2 1
    23     2     1 1
    24     1     9 1
    25     9    18 2
    26     9    17 1
    27     1    23 1
    28     2    24 1
    29     5    25 1
    30     5    26 1
    31     5    27 1
    32    41    28 1
    33    41    29 1
    34    41    30 1
    35     6    31 1
    36     7    32 1
    37     8    33 1
    38    17    34 1
    39    17    35 1
    40    18    36 1
    41    20    37 1
    42    40    38 1
    43    43    39 1
    44    42    17 1
@<TRIPOS>SUBSTRUCTURE
     1 BQ8         1 TEMP              0 ****  ****    0 ROOT
