@<TRIPOS>MOLECULE
BQ8
   43    44     1     0     0
SMALL
bcc


@<TRIPOS>ATOM
      1 N            0.0000     0.0000     0.0000 nu         1 BQ8      -0.462200
      2 CA           1.4650     0.0000     0.0000 c3         1 BQ8       0.044500
      3 C            1.9670     1.2300    -0.7110 c          1 BQ8       0.528100
      4 O            1.1790     2.0280    -1.1720 o          1 BQ8      -0.578100
      5 CB           1.9750     0.0000     1.4420 c3         1 BQ8      -0.028100
      6 CAI          7.6430     7.3350    -4.2330 ca         1 BQ8      -0.152000
      7 CAJ          5.8390     5.7740    -4.5080 ca         1 BQ8      -0.114500
      8 CAK          6.8730     6.0660    -2.3440 ca         1 BQ8      -0.114500
      9 CAP         -0.6880    -1.1860     0.1040 c2         1 BQ8       0.253100
     10 CAQ          2.9040     5.5770    -3.2220 c          1 BQ8       0.519600
     11 CAS          6.7020     6.7140    -5.0420 ca         1 BQ8       0.148100
     12 CAT          7.7280     7.0100    -2.8870 ca         1 BQ8       0.148100
     13 CAU          5.9170     5.4480    -3.1530 ca         1 BQ8      -0.002000
     14 CAV          3.7550     2.5760    -1.4890 cc         1 BQ8       0.360300
     15 CAW          3.6120     4.5150    -2.6080 cd         1 BQ8       0.240800
     16 CAX          4.9910     4.4540    -2.5750 cc         1 BQ8       0.084600
     17 NAC         -2.0620    -1.1850     0.1100 nz         1 BQ8       0.197400
     18 NAD         -0.0360    -2.3110     0.1970 n2         1 BQ8      -0.642100
     19 NAL          3.0030     3.4860    -2.0140 nd         1 BQ8      -0.500000
     20 NAM          3.2920     1.4430    -0.8340 ns         1 BQ8      -0.036400
     21 OAE          3.5060     6.5410    -3.6510 o          1 BQ8      -0.532100
     22 SAO          5.4510     2.9780    -1.7290 ss         1 BQ8      -0.295300
     23 H1          -0.5000     0.8660    -0.0340 hn         1 BQ8       0.328800
     24 H2           1.8260    -0.8850    -0.5100 h1         1 BQ8       0.052700
     25 H3           1.2110    -0.1700     2.1920 hc         1 BQ8       0.038367
     26 H4           2.7210     0.7550     1.6580 hc         1 BQ8       0.038367
     27 H5           2.3620    -0.9000     0.9790 hc         1 BQ8       0.038367
     28 H6           0.9620     5.5060    -2.3520 hc         1 BQ8       0.028033
     29 H7           1.0470     6.3770    -3.8890 hc         1 BQ8       0.028033
     30 H8           1.1210     4.6100    -3.8690 hc         1 BQ8       0.028033
     31 H9           8.3150     8.0730    -4.6550 ha         1 BQ8       0.130000
     32 H10          5.1010     5.2930    -5.1400 ha         1 BQ8       0.120000
     33 H11          6.9390     5.8150    -1.2920 ha         1 BQ8       0.120000
     34 H12         -2.3970    -2.1280     0.1560 hn         1 BQ8       0.225133
     35 H13         -2.3930    -0.6750     0.9050 hn         1 BQ8       0.225133
     36 H14          0.9640    -2.3130     0.1920 hn         1 BQ8       0.382400
     37 H15          3.9420     0.7670    -0.4840 hn         1 BQ8       0.175500
     38 H16          7.2390     6.5060    -6.8480 ho         1 BQ8       0.404500
     39 H17          9.4520     7.1210    -2.1060 ho         1 BQ8       0.404500
     40 OAG          6.6260     7.0330    -6.3610 oh         1 BQ8      -0.492100
     41 CAA          1.4030     5.5130    -3.3410 c3         1 BQ8      -0.076100
     42 HAC3        -2.4000    -0.7530    -0.7280 hn         1 BQ8       0.225133
     43 OAH          8.6530     7.6210    -2.0990 oh         1 BQ8      -0.492100
@<TRIPOS>BOND
     1     1     2 1   
     2     1     9 1   
     3     1    23 1   
     4     2     3 1   
     5     2     5 1   
     6     2    24 1   
     7     3     4 2   
     8     3    20 1   
     9     5    25 1   
    10     5    26 1   
    11     5    27 1   
    12     6    11 ar  
    13     6    12 ar  
    14     6    31 1   
    15     7    11 ar  
    16     7    13 ar  
    17     7    32 1   
    18     8    12 ar  
    19     8    13 ar  
    20     8    33 1   
    21     9    17 1   
    22     9    18 2   
    23    10    15 1   
    24    10    21 2   
    25    10    41 1   
    26    11    40 1   
    27    12    43 1   
    28    13    16 1   
    29    14    19 2   
    30    14    20 1   
    31    14    22 1   
    32    15    16 2   
    33    15    19 1   
    34    16    22 1   
    35    17    34 1   
    36    17    35 1   
    37    17    42 1   
    38    18    36 1   
    39    20    37 1   
    40    28    41 1   
    41    29    41 1   
    42    30    41 1   
    43    38    40 1   
    44    39    43 1   
@<TRIPOS>SUBSTRUCTURE
     1 BQ8         1 TEMP              0 ****  ****    0 ROOT
