@<TRIPOS>MOLECULE
molecule
   62    65     1     0     0
SMALL
bcc


@<TRIPOS>ATOM
      1 N1           0.0000     0.0000     0.0000 n3         1 BQA      -0.731600
      2 C2           5.2820     4.0700     1.1940 c3         1 BQA      -0.045400
      3 C4           6.6880     4.5680     3.3430 cx         1 BQA      -0.156900
      4 C7           1.4520     1.2410     2.1660 c3         1 BQA      -0.102700
      5 C6           3.7680     3.8300    -0.7560 c          1 BQA       0.887600
      6 C9           2.7660     0.2280     4.0400 ca         1 BQA      -0.122000
      7 C10          3.1840     0.2070     5.3570 ca         1 BQA      -0.105500
      8 C11          2.7400     1.1770     6.2390 ca         1 BQA      -0.025900
      9 F2          -0.4760    -2.5080     0.2270 f          1 BQA      -0.221633
     10 F           -0.5150    -2.9970    -2.0050 f          1 BQA      -0.221633
     11 F1          -1.9030    -4.1050    -0.5690 f          1 BQA      -0.221633
     12 C22         -2.3500    -1.8260    -1.0590 ca         1 BQA      -0.164300
     13 C21         -3.6880    -2.1710    -1.0040 ca         1 BQA      -0.093000
     14 C20         -4.6590    -1.2070    -1.1980 ca         1 BQA      -0.147000
     15 C19         -4.2930     0.1020    -1.4470 ca         1 BQA      -0.107000
     16 C18         -2.9560     0.4480    -1.5040 ca         1 BQA      -0.128000
     17 C17         -1.9850    -0.5160    -1.3040 ca         1 BQA      -0.014300
     18 C16         -0.5260    -0.1400    -1.3650 c3         1 BQA       0.188100
     19 C15          1.4690     0.0000     0.0000 c3         1 BQA       0.149300
     20 C14          1.9800     0.0000     1.4420 c3         1 BQA      -0.053400
     21 C24         -0.5310     1.2050     0.6490 c3         1 BQA       0.149300
     22 C25         -0.0790     1.2410     2.1100 c3         1 BQA      -0.053400
     23 C8           1.9030     1.2160     3.6040 ca         1 BQA      -0.041300
     24 C13          1.4550     2.1820     4.4860 ca         1 BQA      -0.122000
     25 C12          1.8770     2.1660     5.8020 ca         1 BQA      -0.105500
     26 Br           3.3120     1.1490     8.0410 br         1 BQA      -0.125100
     27 C            1.9800     2.4810     1.4930 c          1 BQA       0.670100
     28 O            1.2130     3.3430     1.1210 o          1 BQA      -0.621100
     29 N            3.3060     2.6320     1.3040 ns         1 BQA      -0.535900
     30 C1           3.8290     3.8830     0.7490 c3         1 BQA       0.007700
     31 C3           5.3300     4.2490     2.7120 cx         1 BQA      -0.113700
     32 C5           6.0660     3.1820     3.5260 cx         1 BQA      -0.156900
     33 H2           5.6960     4.9480     0.7130 hc         1 BQA       0.060200
     34 H3           5.8600     3.1980     0.9140 hc         1 BQA       0.060200
     35 H4           6.6590     5.2120     4.2130 hc         1 BQA       0.065200
     36 H5           7.5220     4.6190     2.6540 hc         1 BQA       0.065200
     37 H6           3.0910    -0.5460     3.3560 ha         1 BQA       0.148000
     38 H7           3.8120    -0.6010     5.7130 ha         1 BQA       0.136000
     39 H8          -3.9750    -3.1970    -0.8080 ha         1 BQA       0.140000
     40 H9          -5.7070    -1.4770    -1.1540 ha         1 BQA       0.127000
     41 H10         -5.0540     0.8570    -1.6020 ha         1 BQA       0.129000
     42 H11         -2.6690     1.4740    -1.6970 ha         1 BQA       0.148000
     43 H12          0.0250    -0.9130    -1.8870 h1         1 BQA       0.058700
     44 H13         -0.4180     0.8000    -1.8920 h1         1 BQA       0.058700
     45 H14          1.8290     0.8860    -0.5090 h1         1 BQA       0.061200
     46 H15          1.8280    -0.8860    -0.5090 h1         1 BQA       0.061200
     47 H16          3.0640     0.0180     1.4400 hc         1 BQA       0.047700
     48 H17          1.6290    -0.8900     1.9490 hc         1 BQA       0.047700
     49 H18         -0.1590     2.0840     0.1350 h1         1 BQA       0.061200
     50 H19         -1.6140     1.1880     0.6080 h1         1 BQA       0.061200
     51 H20         -0.4560     2.1400     2.5820 hc         1 BQA       0.047700
     52 H21         -0.4580     0.3680     2.6260 hc         1 BQA       0.047700
     53 H22          0.7630     2.9440     4.1480 ha         1 BQA       0.148000
     54 H23          1.5010     2.9040     6.5000 ha         1 BQA       0.136000
     55 H24          3.9290     1.8760     1.5070 hn         1 BQA       0.301500
     56 H25          3.2320     4.7140     1.1060 h1         1 BQA       0.073700
     57 H27          4.4800     4.6960     3.2140 hc         1 BQA       0.078700
     58 H28          6.5210     2.3860     2.9490 hc         1 BQA       0.065200
     59 H29          5.6580     2.9800     4.5080 hc         1 BQA       0.065200
     60 O2           3.3320     2.8480    -1.3080 o          1 BQA      -0.842300
     61 O1           4.1970     4.8740    -1.4830 o          1 BQA      -0.842300
     62 C23         -1.2930    -2.8780    -0.8480 c3         1 BQA       0.672200
@<TRIPOS>BOND
     1    26     8 1
     2     3    32 1
     3     3    31 1
     4     8    25 ar
     5     8     7 ar
     6    25    24 ar
     7    32    31 1
     8    31     2 1
     9     7     6 ar
    10    24    23 ar
    11     2    30 1
    12     6    23 ar
    13    23     4 1
    14    30    29 1
    15    30     5 1
    16    28    27 2
    17    27    29 1
    18    27     4 1
    19     4    22 1
    20     4    20 1
    21    60     5 1
    22     5    61 1
    23    22    21 1
    24    20    19 1
    25    21     1 1
    26    19     1 1
    27     1    18 1
    28    18    17 1
    29    10    62 1
    30    17    16 ar
    31    17    12 ar
    32    16    15 ar
    33    62    12 1
    34    62    11 1
    35    62     9 1
    36    12    13 ar
    37    15    14 ar
    38    13    14 ar
    39     2    33 1
    40     2    34 1
    41     3    35 1
    42     3    36 1
    43     6    37 1
    44     7    38 1
    45    13    39 1
    46    14    40 1
    47    15    41 1
    48    16    42 1
    49    18    43 1
    50    18    44 1
    51    19    45 1
    52    19    46 1
    53    20    47 1
    54    20    48 1
    55    21    49 1
    56    21    50 1
    57    22    51 1
    58    22    52 1
    59    24    53 1
    60    25    54 1
    61    29    55 1
    62    30    56 1
    63    31    57 1
    64    32    58 1
    65    32    59 1
@<TRIPOS>SUBSTRUCTURE
     1 BQA         1 TEMP              0 ****  ****    0 ROOT
