@<TRIPOS>MOLECULE
molecule
   29    30     1     0     0
SMALL
bcc


@<TRIPOS>ATOM
      1 CAA          0.0000     0.0000     0.0000 ca         1 BQB      -0.135000
      2 CAB          1.3790     0.0000     0.0000 ca         1 BQB      -0.072500
      3 CAC          2.0740     0.0000     1.1980 ca         1 BQB      -0.176200
      4 CAD          1.3910    -0.0010     2.4010 ca         1 BQB      -0.072500
      5 CAE          0.0120    -0.0010     2.4160 ca         1 BQB      -0.135000
      6 CAF         -0.6950     0.0050     1.2120 ca         1 BQB       0.190400
      7 CAI         -4.0790     0.0110     0.1110 ca         1 BQB       0.010400
      8 CAJ         -4.7740     0.0050     1.3290 ca         1 BQB      -0.055000
      9 CAK         -6.1500     0.0050     1.3410 ca         1 BQB      -0.046100
     10 CAL         -6.8620     0.0110     0.1470 ca         1 BQB       0.217100
     11 CAM         -6.1760     0.0180    -1.0780 ca         1 BQB      -0.142600
     12 CAN         -4.7820     0.0230    -1.0920 ca         1 BQB       0.018000
     13 CAQ         -6.9290     0.0240    -2.3470 c          1 BQB       0.881200
     14 IAO         -7.1770    -0.0040     3.1670 i          1 BQB      -0.206900
     15 NAG         -2.0630     0.0050     1.2190 ne         1 BQB      -0.306400
     16 NAH         -2.7140     0.0110     0.1040 nf         1 BQB      -0.147400
     17 NAT          3.5540    -0.0010     1.1900 no         1 BQB       0.297200
     18 OAP         -8.2160     0.0060     0.1650 oh         1 BQB      -0.455100
     19 OAR         -6.2690     0.0300    -3.5210 o          1 BQB      -0.812800
     20 OAS         -8.1440     0.0230    -2.3320 o          1 BQB      -0.812800
     21 OAU          4.1580    -0.0010     0.1320 o          1 BQB      -0.221500
     22 OAV          4.1680    -0.0010     2.2420 o          1 BQB      -0.221500
     23 H1          -0.5430     0.0020    -0.9370 ha         1 BQB       0.165500
     24 H2           1.9200    -0.0020    -0.9390 ha         1 BQB       0.160000
     25 H3           1.9420    -0.0030     3.3340 ha         1 BQB       0.160000
     26 H4          -0.5210     0.0000     3.3590 ha         1 BQB       0.165500
     27 H5          -4.2260    -0.0020     2.2630 ha         1 BQB       0.152000
     28 H6          -4.2480     0.0270    -2.0350 ha         1 BQB       0.183000
     29 H9          -8.5270     0.7440     0.6640 ho         1 BQB       0.418000
@<TRIPOS>BOND
     1    18    10 1
     2    20    13 1
     3    13    19 1
     4    13    11 1
     5    14     9 1
     6    10    11 ar
     7    10     9 ar
     8    11    12 ar
     9     9     8 ar
    10    12     7 ar
    11     8     7 ar
    12     7    16 1
    13    16    15 2
    14    15     6 1
    15     6     5 ar
    16     6     1 ar
    17     5     4 ar
    18     1     2 ar
    19     4     3 ar
    20     2     3 ar
    21     3    17 1
    22    17    21 1
    23    17    22 1
    24     1    23 1
    25     2    24 1
    26     4    25 1
    27     5    26 1
    28     8    27 1
    29    12    28 1
    30    18    29 1
@<TRIPOS>SUBSTRUCTURE
     1 BQB         1 TEMP              0 ****  ****    0 ROOT
