@<TRIPOS>MOLECULE
molecule
   43    45     1     0     0
SMALL
bcc


@<TRIPOS>ATOM
      1 C10          0.0000     0.0000     0.0000 c3         1 BQD      -0.126400
      2 C15         -0.0210    -4.3480     5.0510 ca         1 BQD      -0.170000
      3 C17         -0.6050    -6.4450     6.1700 ca         1 BQD      -0.119000
      4 C21          2.1050    -7.1150     6.3310 ca         1 BQD      -0.079000
      5 C22          1.7300    -5.9010     5.7300 ca         1 BQD      -0.052000
      6 C24          2.3050    -3.8450     4.6470 ca         1 BQD      -0.119000
      7 O01          2.2810    -2.3910     2.5410 o          1 BQD      -0.565100
      8 C02          1.2790    -1.8170     2.9140 c          1 BQD       0.674100
      9 C03          0.8190    -0.5690     2.2070 c3         1 BQD       0.051700
     10 N04          1.9270     0.0000     1.4250 n          1 BQD      -0.481800
     11 C05          3.0940     0.4470     1.9280 c          1 BQD       0.688100
     12 C06          4.1460     1.0080     1.0050 c3         1 BQD      -0.151400
     13 C07          5.3640     1.4400     1.8240 c3         1 BQD      -0.078100
     14 O08          3.2990     0.3980     3.1210 o          1 BQD      -0.601100
     15 C09          1.5490     0.0000     0.0000 c3         1 BQD       0.104000
     16 C11         -0.3120    -0.9140     1.2140 c3         1 BQD       0.138100
     17 O12         -0.2510    -2.2920     0.8380 oh         1 BQD      -0.583800
     18 N13          0.5780    -2.2960     3.9610 ns         1 BQD      -0.479100
     19 C14          0.9500    -3.5050     4.5570 ca         1 BQD       0.082600
     20 C16          0.3560    -5.5620     5.6500 ca         1 BQD      -0.010000
     21 C18         -0.2050    -7.6130     6.7450 ca         1 BQD      -0.105000
     22 C19          1.1460    -7.9470     6.8240 ca         1 BQD      -0.023900
     23 Br           1.6550    -9.5800     7.6300 br         1 BQD      -0.104100
     24 C23          2.6950    -5.0190     5.2120 ca         1 BQD      -0.100000
     25 H102        -0.3860    -0.4310    -0.9160 hc         1 BQD       0.063700
     26 H101        -0.3860     0.9990     0.1610 hc         1 BQD       0.063700
     27 H171        -1.6580    -6.1990     6.1150 ha         1 BQD       0.135000
     28 H211         3.1510    -7.3880     6.4000 ha         1 BQD       0.146000
     29 H241         3.0530    -3.1680     4.2520 ha         1 BQD       0.175000
     30 H031         0.4660     0.1600     2.9260 h1         1 BQD       0.074700
     31 H062         4.4420     0.2490     0.2910 hc         1 BQD       0.059700
     32 H061         3.7440     1.8640     0.4770 hc         1 BQD       0.059700
     33 H073         5.7860     0.5780     2.3260 hc         1 BQD       0.044367
     34 H1           6.1070     1.8730     1.1650 hc         1 BQD       0.044367
     35 H072         5.0620     2.1750     2.5610 hc         1 BQD       0.044367
     36 H092         1.9240     0.8910    -0.4880 h1         1 BQD       0.057200
     37 H091         1.9240    -0.8910    -0.4880 h1         1 BQD       0.057200
     38 H111        -1.2780    -0.6680     1.6370 h1         1 BQD       0.045700
     39 H121        -1.0770    -2.5530     0.4640 ho         1 BQD       0.408000
     40 H131        -0.1870    -1.7690     4.3330 hn         1 BQD       0.320500
     41 H181        -0.9470    -8.2930     7.1450 ha         1 BQD       0.140000
     42 H231         3.7470    -5.2680     5.2740 ha         1 BQD       0.140000
     43 H151        -1.0670    -4.0780     4.9780 ha         1 BQD       0.132000
@<TRIPOS>BOND
     1    17    16 1
     2     1    16 1
     3     1    15 1
     4    16     9 1
     5    15    10 1
     6     9     8 1
     7     9    10 1
     8     6    24 ar
     9     6    19 ar
    10    18     8 1
    11    18    19 1
    12     8     7 2
    13    10    11 1
    14    24     5 ar
    15    19     2 ar
    16     5     4 ar
    17     5    20 ar
    18     2    20 ar
    19     4    22 ar
    20    20     3 ar
    21    22    23 1
    22    22    21 ar
    23     3    21 ar
    24    11    12 1
    25    11    14 2
    26    12    13 1
    27     1    25 1
    28     1    26 1
    29     2    43 1
    30     3    27 1
    31     4    28 1
    32     6    29 1
    33     9    30 1
    34    12    31 1
    35    12    32 1
    36    13    33 1
    37    13    34 1
    38    13    35 1
    39    15    36 1
    40    15    37 1
    41    16    38 1
    42    17    39 1
    43    18    40 1
    44    21    41 1
    45    24    42 1
@<TRIPOS>SUBSTRUCTURE
     1 BQD         1 TEMP              0 ****  ****    0 ROOT
