@<TRIPOS>MOLECULE
molecule
   64    67     1     0     0
SMALL
bcc


@<TRIPOS>ATOM
      1 N            0.0000     0.0000     0.0000 n3         1 BQE      -0.715600
      2 CA           1.4690     0.0000     0.0000 c3         1 BQE       0.132500
      3 C            1.9720     1.2300    -0.7100 c          1 BQE       0.707500
      4 O            1.3370     2.2660    -0.6540 o          1 BQE      -0.600100
      5 CB           1.9780     0.0000     1.4430 c3         1 BQE       0.169800
      6 CAG          4.2150     8.5570    -4.5130 ca         1 BQE       0.418200
      7 CAH          4.2270     6.2870    -4.9100 ca         1 BQE       0.468200
      8 CAI          4.0290     7.0700    -2.6410 ca         1 BQE      -0.088000
      9 CAJ         -0.0160    -1.1810     2.1440 c3         1 BQE       0.154800
     10 CAK         -2.0180     0.4150    -1.3230 c3         1 BQE      -0.072400
     11 CAL         -4.0260     0.9550    -2.7100 c3         1 BQE      -0.077900
     12 CAM         -2.4860    -0.8860    -3.4050 c3         1 BQE      -0.077900
     13 CAN         -0.5240    -1.1810     0.7010 c3         1 BQE       0.164800
     14 CAO         -0.5270     0.0760    -1.3690 c3         1 BQE       0.158800
     15 CAP         -4.5740     1.0350    -4.1350 c3         1 BQE      -0.119400
     16 CAQ         -3.0340    -0.8060    -4.8300 c3         1 BQE      -0.119400
     17 CAX          6.1020     3.8210    -4.1020 c          1 BQE       0.580300
     18 CAZ          4.0890     8.3660    -3.1420 ca         1 BQE       0.038300
     19 CBA          4.1000     6.0060    -3.5470 ca         1 BQE      -0.152100
     20 CBB          3.5530     2.2710    -2.0230 cc         1 BQE       0.701100
     21 CBC          4.9520     3.6040    -3.3200 cc         1 BQE      -0.057200
     22 CBD          4.0420     4.6100    -3.0720 cd         1 BQE       0.035400
     23 CBE         -2.5670     0.4950    -2.7490 c3         1 BQE      -0.076700
     24 CBH         -4.4930    -0.3460    -4.7900 c3         1 BQE       0.401600
     25 FAE         -4.9940    -0.2730    -6.0940 f          1 BQE      -0.241300
     26 FAF         -5.2500    -1.2590    -4.0500 f          1 BQE      -0.241300
     27 NAS          4.2790     7.5310    -5.3400 nb         1 BQE      -0.683000
     28 NAT          4.6830     2.3840    -2.7580 na         1 BQE      -0.644000
     29 NAU          1.4540    -1.1810     2.1440 n7         1 BQE      -0.822200
     30 NAV          3.1090     1.1840    -1.3960 nf         1 BQE      -0.783100
     31 OAC          6.3760     4.9430    -4.4810 o          1 BQE      -0.501100
     32 SAW          2.7890     3.8700    -2.0610 ss         1 BQE      -0.013800
     33 H2           1.8290    -0.8870    -0.5070 h1         1 BQE       0.059700
     34 H3           3.0600    -0.0320     1.4440 h1         1 BQE       0.047700
     35 H4           1.6370     0.8970     1.9450 h1         1 BQE       0.047700
     36 H5           7.7750     3.0070    -5.1370 hc         1 BQE       0.066367
     37 H6           7.4420     2.2540    -3.5710 hc         1 BQE       0.066367
     38 H7           6.4080     1.8980    -4.9620 hc         1 BQE       0.066367
     39 H8           4.2610     9.5640    -4.9080 h4         1 BQE       0.030100
     40 H9           4.2830     5.4720    -5.6220 h4         1 BQE       0.027100
     41 H10          3.9310     6.8880    -1.5780 ha         1 BQE       0.149000
     42 H11         -0.3760    -2.0670     2.6530 h1         1 BQE       0.040700
     43 H12         -0.3760    -0.2950     2.6530 h1         1 BQE       0.040700
     44 H13         -2.1560     1.3690    -0.8290 hc         1 BQE       0.053700
     45 H14         -2.5460    -0.3550    -0.7750 hc         1 BQE       0.053700
     46 H15         -4.6120     0.2450    -2.1380 hc         1 BQE       0.055200
     47 H16         -4.0820     1.9330    -2.2470 hc         1 BQE       0.055200
     48 H17         -3.0750    -1.5910    -2.8320 hc         1 BQE       0.055200
     49 H18         -1.4520    -1.2100    -3.4340 hc         1 BQE       0.055200
     50 H19         -1.6070    -1.1500     0.7000 h1         1 BQE       0.044200
     51 H20         -0.1830    -2.0790     0.1990 h1         1 BQE       0.044200
     52 H21         -0.3880    -0.8780    -1.8630 h1         1 BQE       0.038200
     53 H22          0.0020     0.8470    -1.9170 h1         1 BQE       0.038200
     54 H23         -5.6070     1.3590    -4.1060 hc         1 BQE       0.064700
     55 H24         -3.9850     1.7400    -4.7080 hc         1 BQE       0.064700
     56 H25         -2.9780    -1.7840    -5.2920 hc         1 BQE       0.064700
     57 H26         -2.4480    -0.0960    -5.4020 hc         1 BQE       0.064700
     58 H27         -1.9830     1.2010    -3.3270 hc         1 BQE       0.054700
     59 H28          4.8630     9.8420    -1.8890 hn         1 BQE       0.431300
     60 H29          3.1370     9.8620    -2.0440 hn         1 BQE       0.431300
     61 H30          1.7880    -1.1840     3.0880 hn         1 BQE       0.356800
     62 H1           5.3000     1.6060    -2.8870 hn         1 BQE       0.472800
     63 NAB          4.0230     9.4610    -2.2780 nv         1 BQE      -0.985200
     64 CAA          6.9940     2.6640    -4.4690 c3         1 BQE      -0.201100
@<TRIPOS>BOND
     1     1     2 1
     2     1    13 1
     3     1    14 1
     4     2     3 1
     5     2     5 1
     6     3     4 2
     7     3    30 1
     8     5    29 1
     9    64    17 1
    10     6    18 ar
    11     6    27 ar
    12     7    19 ar
    13     7    27 ar
    14     8    18 ar
    15     8    19 ar
    16     9    13 1
    17     9    29 1
    18    10    14 1
    19    10    23 1
    20    11    15 1
    21    11    23 1
    22    12    16 1
    23    12    23 1
    24    15    24 1
    25    16    24 1
    26    17    21 1
    27    17    31 2
    28    18    63 1
    29    19    22 1
    30    20    28 1
    31    20    30 2
    32    20    32 1
    33    21    22 2
    34    21    28 1
    35    22    32 1
    36    24    25 1
    37    24    26 1
    38     2    33 1
    39     5    34 1
    40     5    35 1
    41    64    36 1
    42    64    37 1
    43    64    38 1
    44     6    39 1
    45     7    40 1
    46     8    41 1
    47     9    42 1
    48     9    43 1
    49    10    44 1
    50    10    45 1
    51    11    46 1
    52    11    47 1
    53    12    48 1
    54    12    49 1
    55    13    50 1
    56    13    51 1
    57    14    52 1
    58    14    53 1
    59    15    54 1
    60    15    55 1
    61    16    56 1
    62    16    57 1
    63    23    58 1
    64    63    59 1
    65    63    60 1
    66    29    61 1
    67    28    62 1
@<TRIPOS>SUBSTRUCTURE
     1 BQE         1 TEMP              0 ****  ****    0 ROOT
