@<TRIPOS>MOLECULE
BQH
   31    32     1     0     0
SMALL
bcc


@<TRIPOS>ATOM
      1 N            0.0000     0.0000     0.0000 n7         1 BQH      -0.549200
      2 CA           1.4700     0.0000     0.0000 c3         1 BQH       0.055500
      3 C            1.9720    -1.2310    -0.7090 c          1 BQH       0.538100
      4 O            1.2440    -2.1910    -0.8480 o          1 BQH      -0.577100
      5 CB           1.9780     0.0000     1.4430 c3         1 BQH       0.153800
      6 CAA          7.5300    -3.0220    -3.5310 c3         1 BQH      -0.079100
      7 CAD          4.0810    -4.5910    -2.9170 cc         1 BQH      -0.098400
      8 CAE         -0.0150     1.1820     2.1440 c3         1 BQH       0.143800
      9 CAF         -0.5230     1.1810     0.7000 c3         1 BQH       0.144800
     10 CAO          5.1260    -3.7150    -2.9340 cd         1 BQH       0.247800
     11 CAP          3.6930    -2.4000    -1.8440 cc         1 BQH       0.405300
     12 NAH          4.8780    -2.5410    -2.3430 nd         1 BQH      -0.595000
     13 NAI          1.4550     1.1820     2.1440 n7         1 BQH      -0.584200
     14 NAK          3.2300    -1.2660    -1.1900 ns         1 BQH      -0.061400
     15 OAB          6.5870    -5.1170    -4.0710 o          1 BQH      -0.563100
     16 SAL          2.7550    -3.8640    -2.1180 ss         1 BQH      -0.194300
     17 H1          -0.3340    -0.0040    -0.9440 hn         1 BQH       0.262800
     18 H3           1.8290     0.8870    -0.5080 h1         1 BQH       0.022700
     19 H4           1.6360    -0.8970     1.9450 h1         1 BQH       0.017700
     20 H5           3.0610     0.0310     1.4440 h1         1 BQH       0.017700
     21 H6           7.2100    -2.1250    -4.0470 hc         1 BQH       0.027033
     22 H7           7.7920    -2.7760    -2.5090 hc         1 BQH       0.027033
     23 H8           8.3930    -3.4400    -4.0340 hc         1 BQH       0.027033
     24 H9           4.0890    -5.5870    -3.3430 h4         1 BQH       0.176000
     25 H10         -0.3750     0.2960     2.6530 h1         1 BQH       0.016200
     26 H11         -0.3750     2.0690     2.6520 h1         1 BQH       0.016200
     27 H12         -1.6060     1.1490     0.7000 h1         1 BQH       0.014200
     28 H13         -0.1820     2.0780     0.1980 h1         1 BQH       0.014200
     29 H14          1.7880     1.1850     3.0880 hn         1 BQH       0.258800
     30 H16          3.8210    -0.4630    -1.1040 hn         1 BQH       0.179500
     31 CAM          6.4160    -4.0350    -3.5470 c          1 BQH       0.539600
@<TRIPOS>BOND
     1     1     2 1   
     2     1     9 1   
     3     1    17 1   
     4     2     3 1   
     5     2     5 1   
     6     2    18 1   
     7     3     4 2   
     8     3    14 1   
     9     5    13 1   
    10     5    19 1   
    11     5    20 1   
    12     6    21 1   
    13     6    22 1   
    14     6    23 1   
    15     6    31 1   
    16     7    10 2   
    17     7    16 1   
    18     7    24 1   
    19     8     9 1   
    20     8    13 1   
    21     8    25 1   
    22     8    26 1   
    23     9    27 1   
    24     9    28 1   
    25    10    12 1   
    26    10    31 1   
    27    11    12 2   
    28    11    14 1   
    29    11    16 1   
    30    13    29 1   
    31    14    30 1   
    32    15    31 2   
@<TRIPOS>SUBSTRUCTURE
     1 BQH         1 TEMP              0 ****  ****    0 ROOT
