@<TRIPOS>MOLECULE
molecule
   31    32     1     0     0
SMALL
bcc


@<TRIPOS>ATOM
      1 N            0.0000     0.0000     0.0000 n7         1 BQH      -0.795200
      2 CA           1.4700     0.0000     0.0000 c3         1 BQH       0.105500
      3 C            1.9720    -1.2310    -0.7090 c          1 BQH       0.651100
      4 O            1.2440    -2.1910    -0.8480 o          1 BQH      -0.558100
      5 CB           1.9780     0.0000     1.4430 c3         1 BQH       0.165800
      6 CAA          7.5300    -3.0220    -3.5310 c3         1 BQH      -0.178100
      7 CAD          4.0810    -4.5910    -2.9170 cc         1 BQH      -0.200400
      8 CAE         -0.0150     1.1820     2.1440 c3         1 BQH       0.153800
      9 CAF         -0.5230     1.1810     0.7000 c3         1 BQH       0.160800
     10 CAO          5.1260    -3.7150    -2.9340 cd         1 BQH       0.293800
     11 CAP          3.6930    -2.4000    -1.8440 cc         1 BQH       0.543300
     12 NAH          4.8780    -2.5410    -2.3430 nd         1 BQH      -0.709000
     13 NAI          1.4550     1.1820     2.1440 n7         1 BQH      -0.822200
     14 NAK          3.2300    -1.2660    -1.1900 ns         1 BQH      -0.521400
     15 OAB          6.5870    -5.1170    -4.0710 o          1 BQH      -0.531100
     16 SAL          2.7550    -3.8640    -2.1180 ss         1 BQH      -0.050300
     17 H1          -0.3340    -0.0040    -0.9440 hn         1 BQH       0.367800
     18 H3           1.8290     0.8870    -0.5080 h1         1 BQH       0.046700
     19 H4           1.6360    -0.8970     1.9450 h1         1 BQH       0.048700
     20 H5           3.0610     0.0310     1.4440 h1         1 BQH       0.048700
     21 H6           7.2100    -2.1250    -4.0470 hc         1 BQH       0.063700
     22 H7           7.7920    -2.7760    -2.5090 hc         1 BQH       0.063700
     23 H8           8.3930    -3.4400    -4.0340 hc         1 BQH       0.063700
     24 H9           4.0890    -5.5870    -3.3430 h4         1 BQH       0.200000
     25 H10         -0.3750     0.2960     2.6530 h1         1 BQH       0.045700
     26 H11         -0.3750     2.0690     2.6520 h1         1 BQH       0.045700
     27 H12         -1.6060     1.1490     0.7000 h1         1 BQH       0.044700
     28 H13         -0.1820     2.0780     0.1980 h1         1 BQH       0.044700
     29 H14          1.7880     1.1850     3.0880 hn         1 BQH       0.362800
     30 H16          3.8210    -0.4630    -1.1040 hn         1 BQH       0.345500
     31 CAM          6.4160    -4.0350    -3.5470 c          1 BQH       0.501600
@<TRIPOS>BOND
     1     6    31 1
     2     7    10 2
     3     7    16 1
     4    31    10 1
     5    31    15 2
     6    10    12 1
     7    16    11 1
     8    12    11 2
     9    11    14 1
    10     4     3 2
    11    14     3 1
    12     3     2 1
    13     1     2 1
    14     1     9 1
    15     2     5 1
    16     9     8 1
    17     5    13 1
    18     8    13 1
    19     1    17 1
    20     2    18 1
    21     5    19 1
    22     5    20 1
    23     6    21 1
    24     6    22 1
    25     6    23 1
    26     7    24 1
    27     8    25 1
    28     8    26 1
    29     9    27 1
    30     9    28 1
    31    13    29 1
    32    14    30 1
@<TRIPOS>SUBSTRUCTURE
     1 BQH         1 TEMP              0 ****  ****    0 ROOT
