@<TRIPOS>MOLECULE
BQJ
   95    99     1     0     0
SMALL
bcc


@<TRIPOS>ATOM
      1 N1           0.0000     0.0000     0.0000 n3         1 BQJ      -0.541600
      2 C2           1.4680     0.0000     0.0000 c3         1 BQJ       0.150300
      3 C4           1.4520    -1.2420     2.1660 c3         1 BQJ      -0.027400
      4 C5          -0.0790    -1.2440     2.1100 c3         1 BQJ      -0.023400
      5 C6          -0.5300    -1.2070     0.6480 c3         1 BQJ       0.150300
      6 C64         -5.8950     0.4890     5.8820 c3         1 BQJ       0.012900
      7 C62         -6.0550     0.9920     4.4460 c3         1 BQJ      -0.051400
      8 N45         -7.1820     0.7260     2.2920 na         1 BQJ       0.521400
      9 N44         -6.4060     0.3890     1.1720 nc         1 BQJ      -0.641800
     10 C42         -6.8220     1.1120     0.1510 cd         1 BQJ       0.433800
     11 C47         -7.8720     1.9260     0.6020 cd         1 BQJ      -0.326600
     12 C51         -8.6700     2.9350    -0.1870 c3         1 BQJ       0.154300
     13 N54         -9.8200     3.3300     0.6470 n          1 BQJ      -0.161800
     14 C53         -9.5860     3.6130     2.0700 c3         1 BQJ       0.043000
     15 C54         -9.1230     2.3290     2.7700 c3         1 BQJ       0.046900
     16 C46         -8.0740     1.6600     1.9160 cc         1 BQJ      -0.238600
     17 C68        -11.0550     3.4300     0.1170 c          1 BQJ       0.593100
     18 O72        -11.2310     3.1940    -1.0600 o          1 BQJ      -0.649100
     19 C72        -12.2170     3.8350     0.9850 c3         1 BQJ      -0.100400
     20 C75        -13.4950     3.8730     0.1440 c3         1 BQJ      -0.033700
     21 C76        -14.6510     4.4040     0.9950 c3         1 BQJ      -0.053900
     22 C77        -15.9200     4.4710     0.1390 c3         1 BQJ       0.052000
     23 N80        -16.1640     3.1490    -0.4510 n          1 BQJ      -0.163800
     24 C79        -15.0850     2.5060    -1.2140 c3         1 BQJ       0.052000
     25 C80        -13.8260     2.4600    -0.3440 c3         1 BQJ      -0.053900
     26 C87        -17.3540     2.5360    -0.2960 c          1 BQJ       0.586100
     27 O87        -18.2360     3.0760     0.3360 o          1 BQJ      -0.634100
     28 C89        -17.5890     1.1790    -0.9080 c3         1 BQJ       0.078800
     29 N91        -18.9520     0.7310    -0.5980 n3         1 BQJ      -0.514600
     30 C95        -19.9500     1.5870    -1.2540 c3         1 BQJ       0.175100
     31 C93        -19.1410    -0.6780    -0.9690 c3         1 BQJ       0.175100
     32 C24         -6.2740     1.0770    -1.2270 ca         1 BQJ      -0.059500
     33 C23         -7.1190     1.2590    -2.3200 ca         1 BQJ      -0.118000
     34 C22         -6.6090     1.2250    -3.6030 ca         1 BQJ      -0.032000
     35 C21         -5.2590     1.0120    -3.8080 ca         1 BQJ      -0.189300
     36 C26         -4.4080     0.8300    -2.7230 ca         1 BQJ       0.116900
     37 C25         -4.9140     0.8670    -1.4320 ca         1 BQJ      -0.119000
     38 S19         -2.6870     0.5580    -2.9890 ss         1 BQJ      -0.316000
     39 C17         -2.0370     0.3850    -1.3050 c3         1 BQJ       0.066700
     40 C15         -0.5280     0.1400    -1.3640 c3         1 BQJ       0.172800
     41 C3           1.9800     0.0000     1.4420 c3         1 BQJ      -0.023400
     42 H2           1.8280     0.8860    -0.5090 h1         1 BQJ       0.011200
     43 H3           1.8280    -0.8860    -0.5090 h1         1 BQJ       0.011200
     44 H4           1.7750    -1.2230     3.1990 hc         1 BQJ       0.013700
     45 H5           1.8310    -2.1320     1.6780 hc         1 BQJ       0.013700
     46 H6          -0.4560    -2.1430     2.5810 hc         1 BQJ       0.018950
     47 H7          -0.4590    -0.3710     2.6260 hc         1 BQJ       0.018950
     48 H8          -1.6130    -1.1920     0.6060 h1         1 BQJ       0.011200
     49 H9          -0.1560    -2.0850     0.1340 h1         1 BQJ       0.011200
     50 H10         -5.2270     1.1480     6.4230 hc         1 BQJ       0.005367
     51 H11         -5.4840    -0.5130     5.8700 hc         1 BQJ       0.005367
     52 H12         -6.8630     0.4770     6.3700 hc         1 BQJ       0.005367
     53 H13         -5.0900     0.9870     3.9530 hc         1 BQJ       0.023700
     54 H14         -6.4170     2.0100     4.5200 hc         1 BQJ       0.023700
     55 H15         -8.0110     0.1610     4.1280 h1         1 BQJ       0.039200
     56 H16         -6.6850    -0.8620     3.5600 h1         1 BQJ       0.039200
     57 H17         -9.0210     2.4870    -1.1090 h1         1 BQJ       0.042200
     58 H18         -8.0560     3.8020    -0.4010 h1         1 BQJ       0.042200
     59 H19         -8.7900     4.3440     2.1430 h1         1 BQJ       0.035200
     60 H20        -10.5260     3.9200     2.5130 h1         1 BQJ       0.035200
     61 H21         -8.6680     2.6020     3.7140 hc         1 BQJ       0.031700
     62 H22         -9.9720     1.6610     2.8500 hc         1 BQJ       0.031700
     63 H23        -12.3350     3.1180     1.7880 hc         1 BQJ       0.033200
     64 H24        -12.0310     4.8170     1.4030 hc         1 BQJ       0.033200
     65 H25        -13.3510     4.5230    -0.7110 hc         1 BQJ       0.048700
     66 H26        -14.8170     3.7380     1.8330 hc         1 BQJ       0.030200
     67 H27        -14.4070     5.3950     1.3560 hc         1 BQJ       0.030200
     68 H28        -15.7860     5.2010    -0.6500 h1         1 BQJ       0.030450
     69 H29        -16.7610     4.7510     0.7610 h1         1 BQJ       0.030450
     70 H30        -14.8840     3.0790    -2.1110 h1         1 BQJ       0.030450
     71 H31        -15.3790     1.4970    -1.4780 h1         1 BQJ       0.030450
     72 H32        -14.0010     1.8160     0.5100 hc         1 BQJ       0.030200
     73 H33        -12.9980     2.0770    -0.9280 hc         1 BQJ       0.030200
     74 H34        -16.8760     0.4710    -0.5020 h1         1 BQJ       0.022700
     75 H35        -17.4650     1.2400    -1.9820 h1         1 BQJ       0.022700
     76 H37        -20.1870     2.4250    -0.6100 h1         1 BQJ       0.004033
     77 H38        -19.5500     1.9540    -2.1920 h1         1 BQJ       0.004033
     78 H39        -20.8490     1.0130    -1.4450 h1         1 BQJ       0.004033
     79 H40        -20.1510    -0.9840    -0.7240 h1         1 BQJ       0.004033
     80 H41        -18.4350    -1.2930    -0.4250 h1         1 BQJ       0.004033
     81 H42        -18.9770    -0.7960    -2.0340 h1         1 BQJ       0.004033
     82 H43         -8.1780     1.4260    -2.1630 ha         1 BQJ       0.130000
     83 H44         -7.2680     1.3660    -4.4510 ha         1 BQJ       0.125000
     84 H45         -4.2530     0.7260    -0.5850 ha         1 BQJ       0.137000
     85 H46         -2.5200    -0.4510    -0.8150 h1         1 BQJ       0.052200
     86 H47         -2.2340     1.2930    -0.7470 h1         1 BQJ       0.052200
     87 H48         -0.0450     0.9770    -1.8530 h1         1 BQJ       0.023200
     88 H49         -0.3310    -0.7670    -1.9220 h1         1 BQJ       0.023200
     89 H50          3.0630    -0.0170     1.4410 hc         1 BQJ       0.018950
     90 H51          1.6270     0.8900     1.9500 hc         1 BQJ       0.018950
     91 C33         -4.7080     0.9760    -5.2100 c3         1 BQJ       0.647200
     92 C60         -7.0470     0.1560     3.6340 c3         1 BQJ      -0.016700
     93 F44         -4.1170    -0.2700    -5.4480 f          1 BQJ      -0.204967
     94 F45         -5.7460     1.1820    -6.1250 f          1 BQJ      -0.204967
     95 F46         -3.7490     1.9830    -5.3600 f          1 BQJ      -0.204967
@<TRIPOS>BOND
     1     1     2 1   
     2     1     5 1   
     3     1    40 1   
     4     2    41 1   
     5     2    42 1   
     6     2    43 1   
     7     3     4 1   
     8     3    41 1   
     9     3    44 1   
    10     3    45 1   
    11     4     5 1   
    12     4    46 1   
    13     4    47 1   
    14     5    48 1   
    15     5    49 1   
    16     6     7 1   
    17     6    50 1   
    18     6    51 1   
    19     6    52 1   
    20     7    53 1   
    21     7    54 1   
    22     7    92 1   
    23     8     9 1   
    24     8    16 1   
    25     8    92 1   
    26     9    10 2   
    27    10    11 1   
    28    10    32 1   
    29    11    12 1   
    30    11    16 2   
    31    12    13 1   
    32    12    57 1   
    33    12    58 1   
    34    13    14 1   
    35    13    17 1   
    36    14    15 1   
    37    14    59 1   
    38    14    60 1   
    39    15    16 1   
    40    15    61 1   
    41    15    62 1   
    42    17    18 2   
    43    17    19 1   
    44    19    20 1   
    45    19    63 1   
    46    19    64 1   
    47    20    21 1   
    48    20    25 1   
    49    20    65 1   
    50    21    22 1   
    51    21    66 1   
    52    21    67 1   
    53    22    23 1   
    54    22    68 1   
    55    22    69 1   
    56    23    24 1   
    57    23    26 1   
    58    24    25 1   
    59    24    70 1   
    60    24    71 1   
    61    25    72 1   
    62    25    73 1   
    63    26    27 2   
    64    26    28 1   
    65    28    29 1   
    66    28    74 1   
    67    28    75 1   
    68    29    30 1   
    69    29    31 1   
    70    30    76 1   
    71    30    77 1   
    72    30    78 1   
    73    31    79 1   
    74    31    80 1   
    75    31    81 1   
    76    32    33 ar  
    77    32    37 ar  
    78    33    34 ar  
    79    33    82 1   
    80    34    35 ar  
    81    34    83 1   
    82    35    36 ar  
    83    35    91 1   
    84    36    37 ar  
    85    36    38 1   
    86    37    84 1   
    87    38    39 1   
    88    39    40 1   
    89    39    85 1   
    90    39    86 1   
    91    40    87 1   
    92    40    88 1   
    93    41    89 1   
    94    41    90 1   
    95    55    92 1   
    96    56    92 1   
    97    91    93 1   
    98    91    94 1   
    99    91    95 1   
@<TRIPOS>SUBSTRUCTURE
     1 BQJ         1 TEMP              0 ****  ****    0 ROOT
