@<TRIPOS>MOLECULE
molecule
   95    99     1     0     0
SMALL
bcc


@<TRIPOS>ATOM
      1 N1           0.0000     0.0000     0.0000 n3         1 BQJ      -0.729600
      2 C2           1.4680     0.0000     0.0000 c3         1 BQJ       0.162800
      3 C4           1.4520    -1.2420     2.1660 c3         1 BQJ      -0.082400
      4 C5          -0.0790    -1.2440     2.1100 c3         1 BQJ      -0.077900
      5 C6          -0.5300    -1.2070     0.6480 c3         1 BQJ       0.162800
      6 C64         -5.8950     0.4890     5.8820 c3         1 BQJ      -0.091100
      7 C62         -6.0550     0.9920     4.4460 c3         1 BQJ      -0.110400
      8 N45         -7.1820     0.7260     2.2920 na         1 BQJ       0.082400
      9 N44         -6.4060     0.3890     1.1720 nc         1 BQJ      -0.497800
     10 C42         -6.8220     1.1120     0.1510 cc         1 BQJ       0.397800
     11 C47         -7.8720     1.9260     0.6020 cc         1 BQJ      -0.313600
     12 C51         -8.6700     2.9350    -0.1870 c3         1 BQJ       0.191300
     13 N54         -9.8200     3.3300     0.6470 n          1 BQJ      -0.495800
     14 C53         -9.5860     3.6130     2.0700 c3         1 BQJ       0.105000
     15 C54         -9.1230     2.3290     2.7700 c3         1 BQJ      -0.038100
     16 C46         -8.0740     1.6600     1.9160 cd         1 BQJ      -0.062600
     17 C68        -11.0550     3.4300     0.1170 c          1 BQJ       0.666100
     18 O72        -11.2310     3.1940    -1.0600 o          1 BQJ      -0.613100
     19 C72        -12.2170     3.8350     0.9850 c3         1 BQJ      -0.154400
     20 C75        -13.4950     3.8730     0.1440 c3         1 BQJ      -0.054700
     21 C76        -14.6510     4.4040     0.9950 c3         1 BQJ      -0.100400
     22 C77        -15.9200     4.4710     0.1390 c3         1 BQJ       0.107500
     23 N80        -16.1640     3.1490    -0.4510 n          1 BQJ      -0.498800
     24 C79        -15.0850     2.5060    -1.2140 c3         1 BQJ       0.107500
     25 C80        -13.8260     2.4600    -0.3440 c3         1 BQJ      -0.100400
     26 C87        -17.3540     2.5360    -0.2960 c          1 BQJ       0.663100
     27 O87        -18.2360     3.0760     0.3360 o          1 BQJ      -0.595100
     28 C89        -17.5890     1.1790    -0.9080 c3         1 BQJ       0.090800
     29 N91        -18.9520     0.7310    -0.5980 n3         1 BQJ      -0.709600
     30 C95        -19.9500     1.5870    -1.2540 c3         1 BQJ       0.150600
     31 C93        -19.1410    -0.6780    -0.9690 c3         1 BQJ       0.150600
     32 C24         -6.2740     1.0770    -1.2270 ca         1 BQJ      -0.065500
     33 C23         -7.1190     1.2590    -2.3200 ca         1 BQJ      -0.136000
     34 C22         -6.6090     1.2250    -3.6030 ca         1 BQJ      -0.067000
     35 C21         -5.2590     1.0120    -3.8080 ca         1 BQJ      -0.173300
     36 C26         -4.4080     0.8300    -2.7230 ca         1 BQJ       0.079900
     37 C25         -4.9140     0.8670    -1.4320 ca         1 BQJ      -0.134000
     38 S19         -2.6870     0.5580    -2.9890 ss         1 BQJ      -0.220000
     39 C17         -2.0370     0.3850    -1.3050 c3         1 BQJ      -0.016300
     40 C15         -0.5280     0.1400    -1.3640 c3         1 BQJ       0.177800
     41 C3           1.9800     0.0000     1.4420 c3         1 BQJ      -0.077900
     42 H2           1.8280     0.8860    -0.5090 h1         1 BQJ       0.035200
     43 H3           1.8280    -0.8860    -0.5090 h1         1 BQJ       0.035200
     44 H4           1.7750    -1.2230     3.1990 hc         1 BQJ       0.040700
     45 H5           1.8310    -2.1320     1.6780 hc         1 BQJ       0.040700
     46 H6          -0.4560    -2.1430     2.5810 hc         1 BQJ       0.048700
     47 H7          -0.4590    -0.3710     2.6260 hc         1 BQJ       0.048700
     48 H8          -1.6130    -1.1920     0.6060 h1         1 BQJ       0.035200
     49 H9          -0.1560    -2.0850     0.1340 h1         1 BQJ       0.035200
     50 H10         -5.2270     1.1480     6.4230 hc         1 BQJ       0.039033
     51 H11         -5.4840    -0.5130     5.8700 hc         1 BQJ       0.039033
     52 H12         -6.8630     0.4770     6.3700 hc         1 BQJ       0.039033
     53 H13         -5.0900     0.9870     3.9530 hc         1 BQJ       0.053700
     54 H14         -6.4170     2.0100     4.5200 hc         1 BQJ       0.053700
     55 H15         -8.0110     0.1610     4.1280 h1         1 BQJ       0.067700
     56 H16         -6.6850    -0.8620     3.5600 h1         1 BQJ       0.067700
     57 H17         -9.0210     2.4870    -1.1090 h1         1 BQJ       0.070700
     58 H18         -8.0560     3.8020    -0.4010 h1         1 BQJ       0.070700
     59 H19         -8.7900     4.3440     2.1430 h1         1 BQJ       0.061700
     60 H20        -10.5260     3.9200     2.5130 h1         1 BQJ       0.061700
     61 H21         -8.6680     2.6020     3.7140 hc         1 BQJ       0.065700
     62 H22         -9.9720     1.6610     2.8500 hc         1 BQJ       0.065700
     63 H23        -12.3350     3.1180     1.7880 hc         1 BQJ       0.061200
     64 H24        -12.0310     4.8170     1.4030 hc         1 BQJ       0.061200
     65 H25        -13.3510     4.5230    -0.7110 hc         1 BQJ       0.070700
     66 H26        -14.8170     3.7380     1.8330 hc         1 BQJ       0.055450
     67 H27        -14.4070     5.3950     1.3560 hc         1 BQJ       0.055450
     68 H28        -15.7860     5.2010    -0.6500 h1         1 BQJ       0.056200
     69 H29        -16.7610     4.7510     0.7610 h1         1 BQJ       0.056200
     70 H30        -14.8840     3.0790    -2.1110 h1         1 BQJ       0.056200
     71 H31        -15.3790     1.4970    -1.4780 h1         1 BQJ       0.056200
     72 H32        -14.0010     1.8160     0.5100 hc         1 BQJ       0.055450
     73 H33        -12.9980     2.0770    -0.9280 hc         1 BQJ       0.055450
     74 H34        -16.8760     0.4710    -0.5020 h1         1 BQJ       0.049700
     75 H35        -17.4650     1.2400    -1.9820 h1         1 BQJ       0.049700
     76 H37        -20.1870     2.4250    -0.6100 h1         1 BQJ       0.035367
     77 H38        -19.5500     1.9540    -2.1920 h1         1 BQJ       0.035367
     78 H39        -20.8490     1.0130    -1.4450 h1         1 BQJ       0.035367
     79 H40        -20.1510    -0.9840    -0.7240 h1         1 BQJ       0.035367
     80 H41        -18.4350    -1.2930    -0.4250 h1         1 BQJ       0.035367
     81 H42        -18.9770    -0.7960    -2.0340 h1         1 BQJ       0.035367
     82 H43         -8.1780     1.4260    -2.1630 ha         1 BQJ       0.152000
     83 H44         -7.2680     1.3660    -4.4510 ha         1 BQJ       0.156000
     84 H45         -4.2530     0.7260    -0.5850 ha         1 BQJ       0.155000
     85 H46         -2.5200    -0.4510    -0.8150 h1         1 BQJ       0.074700
     86 H47         -2.2340     1.2930    -0.7470 h1         1 BQJ       0.074700
     87 H48         -0.0450     0.9770    -1.8530 h1         1 BQJ       0.046700
     88 H49         -0.3310    -0.7670    -1.9220 h1         1 BQJ       0.046700
     89 H50          3.0630    -0.0170     1.4410 hc         1 BQJ       0.048700
     90 H51          1.6270     0.8900     1.9500 hc         1 BQJ       0.048700
     91 C33         -4.7080     0.9760    -5.2100 c3         1 BQJ       0.673200
     92 C60         -7.0470     0.1560     3.6340 c3         1 BQJ       0.074300
     93 F44         -4.1170    -0.2700    -5.4480 f          1 BQJ      -0.218633
     94 F45         -5.7460     1.1820    -6.1250 f          1 BQJ      -0.218633
     95 F46         -3.7490     1.9830    -5.3600 f          1 BQJ      -0.218633
@<TRIPOS>BOND
     1    95    91 1
     2    93    91 1
     3    91    94 1
     4    91    35 1
     5    35    34 ar
     6    35    36 ar
     7    34    33 ar
     8    38    36 1
     9    38    39 1
    10    36    37 ar
    11    33    32 ar
    12    39    40 1
    13    37    32 ar
    14    32    10 1
    15    40     1 1
    16     5     1 1
    17     5     4 1
    18    10    11 1
    19    10     9 2
    20     1     2 1
    21    12    11 1
    22    12    13 1
    23     2    41 1
    24    11    16 2
    25     9     8 1
    26    18    17 2
    27     4     3 1
    28    13    17 1
    29    13    14 1
    30     3    41 1
    31    17    19 1
    32    16     8 1
    33    16    15 1
    34     8    92 1
    35    14    15 1
    36     7    92 1
    37     7     6 1
    38    19    20 1
    39    25    20 1
    40    25    24 1
    41    20    21 1
    42    24    23 1
    43    21    22 1
    44    23    22 1
    45    23    26 1
    46    27    26 2
    47    26    28 1
    48    31    29 1
    49    28    29 1
    50    29    30 1
    51     2    42 1
    52     2    43 1
    53     3    44 1
    54     3    45 1
    55     4    46 1
    56     4    47 1
    57     5    48 1
    58     5    49 1
    59     6    50 1
    60     6    51 1
    61     6    52 1
    62     7    53 1
    63     7    54 1
    64    92    55 1
    65    92    56 1
    66    12    57 1
    67    12    58 1
    68    14    59 1
    69    14    60 1
    70    15    61 1
    71    15    62 1
    72    19    63 1
    73    19    64 1
    74    20    65 1
    75    21    66 1
    76    21    67 1
    77    22    68 1
    78    22    69 1
    79    24    70 1
    80    24    71 1
    81    25    72 1
    82    25    73 1
    83    28    74 1
    84    28    75 1
    85    30    76 1
    86    30    77 1
    87    30    78 1
    88    31    79 1
    89    31    80 1
    90    31    81 1
    91    33    82 1
    92    34    83 1
    93    37    84 1
    94    39    85 1
    95    39    86 1
    96    40    87 1
    97    40    88 1
    98    41    89 1
    99    41    90 1
@<TRIPOS>SUBSTRUCTURE
     1 BQJ         1 TEMP              0 ****  ****    0 ROOT
