@<TRIPOS>MOLECULE
BQK
   43    45     1     0     0
SMALL
bcc


@<TRIPOS>ATOM
      1 N            0.0000     0.0000     0.0000 n7         1 BQK      -0.547200
      2 CA           1.4690     0.0000     0.0000 c3         1 BQK       0.051500
      3 C            1.9730     1.2310    -0.7090 c          1 BQK       0.534100
      4 O            1.2450     2.1910    -0.8480 o          1 BQK      -0.542100
      5 CB           1.9770     0.0000     1.4450 c3         1 BQK       0.153800
      6 CAF          7.4960     6.8520    -5.1580 ca         1 BQK      -0.168000
      7 CAG          7.0380     5.4800    -3.2400 ca         1 BQK      -0.118000
      8 CAH          5.4250     5.6410    -5.0310 ca         1 BQK      -0.118000
      9 CAI         -0.0180    -1.1800     2.1440 c3         1 BQK       0.143800
     10 CAJ         -0.5240    -1.1800     0.7000 c3         1 BQK       0.144800
     11 CAQ          2.9580     5.6990    -2.9760 c          1 BQK       0.528600
     12 CAS          7.8780     6.3410    -3.9260 ca         1 BQK       0.142100
     13 CAT          6.2710     6.5010    -5.7090 ca         1 BQK       0.142100
     14 CAU          5.8050     5.1250    -3.7900 ca         1 BQK       0.028000
     15 CAV          3.6960     2.3960    -1.8430 cc         1 BQK       0.418300
     16 CAW          3.6050     4.4700    -2.6920 cd         1 BQK       0.261800
     17 CAX          4.9080     4.2060    -3.0640 cc         1 BQK       0.029600
     18 NAL          3.0040     3.4700    -2.0430 nd         1 BQK      -0.528000
     19 NAM          1.4520    -1.1810     2.1450 n7         1 BQK      -0.585200
     20 NAO          3.2330     1.2640    -1.1890 ns         1 BQK      -0.079400
     21 OAB          3.5840     6.6140    -3.4710 o          1 BQK      -0.559100
     22 OAE          5.9010     7.0050    -6.9160 oh         1 BQK      -0.499600
     23 SAP          5.3080     2.5770    -2.5240 ss         1 BQK      -0.327300
     24 H1          -0.3340     0.0030    -0.9440 hn         1 BQK       0.261800
     25 H3           1.8290    -0.8870    -0.5070 h1         1 BQK       0.018700
     26 H4           3.0600    -0.0320     1.4460 h1         1 BQK       0.016700
     27 H5           1.6360     0.8970     1.9460 h1         1 BQK       0.016700
     28 H6           0.9240     5.0990    -3.1670 hc         1 BQK       0.030367
     29 H7           1.1630     6.8450    -3.0040 hc         1 BQK       0.030367
     30 H8           1.3410     5.7920    -1.5930 hc         1 BQK       0.030367
     31 H9           8.1550     7.5260    -5.6920 ha         1 BQK       0.123000
     32 H10          7.3380     5.0820    -2.2770 ha         1 BQK       0.121500
     33 H11          4.4690     5.3680    -5.4630 ha         1 BQK       0.121500
     34 H12         -0.3790    -2.0660     2.6520 h1         1 BQK       0.015700
     35 H13         -0.3780    -0.2930     2.6520 h1         1 BQK       0.015700
     36 H14         -0.1830    -2.0770     0.1990 h1         1 BQK       0.013200
     37 H15         -1.6070    -1.1480     0.6990 h1         1 BQK       0.013200
     38 H16          1.7850    -1.1850     3.0890 hn         1 BQK       0.257800
     39 H18          3.8210     0.4580    -1.1060 hn         1 BQK       0.176500
     40 H19          8.9750     7.4610    -2.8610 ho         1 BQK       0.403500
     41 H20          6.2500     6.4630    -7.6040 ho         1 BQK       0.403500
     42 OAD          9.0780     6.6880    -3.3900 oh         1 BQK      -0.499600
     43 CAA          1.4940     5.8710    -2.6630 c3         1 BQK      -0.080100
@<TRIPOS>BOND
     1     1     2 1   
     2     1    10 1   
     3     1    24 1   
     4     2     3 1   
     5     2     5 1   
     6     2    25 1   
     7     3     4 2   
     8     3    20 1   
     9     5    19 1   
    10     5    26 1   
    11     5    27 1   
    12     6    12 ar  
    13     6    13 ar  
    14     6    31 1   
    15     7    12 ar  
    16     7    14 ar  
    17     7    32 1   
    18     8    13 ar  
    19     8    14 ar  
    20     8    33 1   
    21     9    10 1   
    22     9    19 1   
    23     9    34 1   
    24     9    35 1   
    25    10    36 1   
    26    10    37 1   
    27    11    16 1   
    28    11    21 2   
    29    11    43 1   
    30    12    42 1   
    31    13    22 1   
    32    14    17 1   
    33    15    18 2   
    34    15    20 1   
    35    15    23 1   
    36    16    17 2   
    37    16    18 1   
    38    17    23 1   
    39    19    38 1   
    40    20    39 1   
    41    22    41 1   
    42    28    43 1   
    43    29    43 1   
    44    30    43 1   
    45    40    42 1   
@<TRIPOS>SUBSTRUCTURE
     1 BQK         1 TEMP              0 ****  ****    0 ROOT
