@<TRIPOS>MOLECULE
molecule
   50    52     1     0     0
SMALL
bcc


@<TRIPOS>ATOM
      1 F6           0.0000     0.0000     0.0000 f          1 BQM      -0.206633
      2 C12          1.3990     0.0000     0.0000 c3         1 BQM       0.670200
      3 F4           1.8650     0.0000     1.3200 f          1 BQM      -0.206633
      4 F5           1.8660    -1.1420    -0.6590 f          1 BQM      -0.206633
      5 C11          1.9020     1.2310    -0.7090 ca         1 BQM      -0.138300
      6 C9           2.0050     2.4130    -0.0340 ca         1 BQM      -0.103300
      7 C10          1.6160     2.4880     1.4200 c3         1 BQM       0.672200
      8 F3           2.7050     2.1110     2.2140 f          1 BQM      -0.210300
      9 F2           1.2400     3.7980     1.7350 f          1 BQM      -0.210300
     10 F1           0.5430     1.6230     1.6610 f          1 BQM      -0.210300
     11 C13          2.2670     1.1590    -2.0530 ca         1 BQM       0.056900
     12 S            2.1380    -0.3700    -2.9170 ss         1 BQM      -0.107800
     13 C14          2.8570    -0.0010    -4.4840 ca         1 BQM      -0.060100
     14 C19          4.2320    -0.0880    -4.6540 ca         1 BQM      -0.092000
     15 C18          4.7940     0.2030    -5.8900 ca         1 BQM       0.151600
     16 N2           6.1770     0.1160    -6.0660 nv         1 BQM      -0.989200
     17 C17          3.9790     0.5790    -6.9510 ca         1 BQM      -0.113000
     18 C16          2.6110     0.6640    -6.7760 ca         1 BQM      -0.140000
     19 C15          2.0470     0.3700    -5.5510 ca         1 BQM      -0.086000
     20 C20          2.7320     2.2940    -2.7130 ca         1 BQM      -0.124000
     21 C21          2.8330     3.4820    -2.0460 ca         1 BQM      -0.081000
     22 C8           2.4720     3.5560    -0.6950 ca         1 BQM      -0.046800
     23 C7           2.5840     4.8310     0.0270 ce         1 BQM      -0.050200
     24 C6           2.6920     5.9890    -0.6590 cf         1 BQM      -0.239200
     25 C1           2.8040     7.2570     0.0600 c          1 BQM       0.671300
     26 O1           2.9190     7.2610     1.2720 o          1 BQM      -0.608100
     27 N1           2.7800     8.4210    -0.6190 n          1 BQM      -0.490800
     28 C5           2.5210     8.4480    -2.0670 c3         1 BQM       0.068000
     29 C4           1.4120     9.4710    -2.3410 c3         1 BQM       0.120400
     30 O2           1.7620    10.7180    -1.7350 os         1 BQM      -0.419600
     31 C3           1.8790    10.6640    -0.3110 c3         1 BQM       0.120400
     32 C2           3.0060     9.7020     0.0670 c3         1 BQM       0.068000
     33 H19          4.8540    -0.4650    -3.8520 ha         1 BQM       0.153000
     34 HN2          6.5930    -0.7530    -6.3370 hn         1 BQM       0.431800
     35 HN2A         6.7520     0.9210    -5.9160 hn         1 BQM       0.431800
     36 H17          4.4170     0.8090    -7.9150 ha         1 BQM       0.141000
     37 H16          1.9780     0.9560    -7.6060 ha         1 BQM       0.137000
     38 H15          0.9740     0.4380    -5.4180 ha         1 BQM       0.144000
     39 H20          3.0130     2.2350    -3.7570 ha         1 BQM       0.157000
     40 H21          3.1950     4.3640    -2.5610 ha         1 BQM       0.147000
     41 H7           2.5810     4.8420     1.1110 ha         1 BQM       0.191000
     42 H6           2.6960     5.9790    -1.7420 ha         1 BQM       0.127000
     43 H5           3.4220     8.7390    -2.5920 h1         1 BQM       0.063700
     44 H5A          2.2000     7.4670    -2.3980 h1         1 BQM       0.063700
     45 H4           1.3030     9.6080    -3.4100 h1         1 BQM       0.056200
     46 H4A          0.4800     9.1140    -1.9200 h1         1 BQM       0.056200
     47 H3           0.9470    10.3120     0.1140 h1         1 BQM       0.056200
     48 H3A          2.1060    11.6520     0.0700 h1         1 BQM       0.056200
     49 H2           3.0040     9.5460     1.1390 h1         1 BQM       0.063700
     50 H2A          3.9570    10.1180    -0.2440 h1         1 BQM       0.063700
@<TRIPOS>BOND
     1     1     2 1
     2     2     3 1
     3     2     4 1
     4     2     5 1
     5     5     6 ar
     6     5    11 ar
     7     6     7 1
     8     6    22 ar
     9     7     8 1
    10     7     9 1
    11     7    10 1
    12    11    12 1
    13    11    20 ar
    14    12    13 1
    15    13    14 ar
    16    13    19 ar
    17    14    15 ar
    18    15    16 1
    19    15    17 ar
    20    17    18 ar
    21    18    19 ar
    22    20    21 ar
    23    21    22 ar
    24    22    23 1
    25    23    24 2
    26    24    25 1
    27    25    26 2
    28    25    27 1
    29    27    28 1
    30    27    32 1
    31    28    29 1
    32    29    30 1
    33    30    31 1
    34    31    32 1
    35    14    33 1
    36    16    34 1
    37    16    35 1
    38    17    36 1
    39    18    37 1
    40    19    38 1
    41    20    39 1
    42    21    40 1
    43    23    41 1
    44    24    42 1
    45    28    43 1
    46    28    44 1
    47    29    45 1
    48    29    46 1
    49    31    47 1
    50    31    48 1
    51    32    49 1
    52    32    50 1
@<TRIPOS>SUBSTRUCTURE
     1 BQM         1 TEMP              0 ****  ****    0 ROOT
