@<TRIPOS>MOLECULE
BQN
   61    66     1     0     0
SMALL
bcc


@<TRIPOS>ATOM
      1 F6           0.0000     0.0000     0.0000 f          1 BQN      -0.126333
      2 C12          1.3980     0.0000     0.0000 c3         1 BQN       0.428000
      3 F4           1.8660     0.0000     1.3180 f          1 BQN      -0.126333
      4 F5           1.8650    -1.1420    -0.6600 f          1 BQN      -0.126333
      5 C11          1.9010     1.2310    -0.7100 c2         1 BQN      -0.087000
      6 C9           1.9910     2.4170    -0.0400 c2         1 BQN      -0.200000
      7 C10          1.5880     2.4950     1.4100 c3         1 BQN       0.435000
      8 F3           2.6790     2.1560     2.2170 f          1 BQN      -0.129333
      9 F2           1.1750     3.7990     1.7100 f          1 BQN      -0.129333
     10 F1           0.5350     1.6060     1.6510 f          1 BQN      -0.129333
     11 C13          2.2780     1.1550    -2.0500 c2         1 BQN      -0.156000
     12 S            2.1680    -0.3780    -2.9090 ss         1 BQN       0.221000
     13 C14          2.9010    -0.0120    -4.4700 ca         1 BQN      -0.280000
     14 C19          4.2880     0.0410    -4.5940 ca         1 BQN       0.157000
     15 O3           5.0790    -0.1880    -3.5140 os         1 BQN      -0.163000
     16 C20          6.4930    -0.1170    -3.7170 c3         1 BQN       0.108000
     17 C21          7.2020    -0.3980    -2.4170 c2         1 BQN      -0.166000
     18 C25          7.5530    -1.6950    -2.0760 c2         1 BQN      -0.037000
     19 C24          8.2050    -1.9060    -0.8700 c2         1 BQN      -0.157000
     20 C23          8.4810    -0.8250    -0.0550 c2         1 BQN      -0.046000
     21 N2           8.1300     0.3960    -0.4120 n2         1 BQN      -0.057000
     22 C22          7.5150     0.6340    -1.5530 c2         1 BQN      -0.037000
     23 C18          4.8580     0.3290    -5.8240 ca         1 BQN      -0.233000
     24 C17          4.0510     0.5630    -6.9230 ca         1 BQN      -0.018000
     25 C16          2.6750     0.5100    -6.7990 ca         1 BQN      -0.164000
     26 C15          2.0980     0.2170    -5.5780 ca         1 BQN       0.003000
     27 C26          2.7440     2.2910    -2.7110 c2         1 BQN      -0.063000
     28 C27          2.8310     3.4820    -2.0490 c2         1 BQN      -0.129000
     29 C8           2.4570     3.5600    -0.7010 c3         1 BQN       0.054000
     30 C7           2.5550     4.8380     0.0170 c2         1 BQN       0.050000
     31 C6           2.6660     5.9940    -0.6740 c2         1 BQN      -0.167000
     32 C1           2.7630     7.2650     0.0410 c3         1 BQN       0.359000
     33 O1           2.8400     7.2770     1.2560 o          1 BQN      -0.425000
     34 N1           2.7660     8.4250    -0.6450 n3         1 BQN      -0.033000
     35 C5           2.5610     8.4430    -2.1030 c3         1 BQN      -0.101500
     36 C4           1.4650     9.4680    -2.4220 c3         1 BQN       0.049500
     37 O2           1.7960    10.7170    -1.8120 os         1 BQN      -0.261000
     38 C3           1.8610    10.6720    -0.3840 c3         1 BQN       0.049500
     39 C2           2.9700     9.7110     0.0410 c3         1 BQN      -0.101500
     40 H20          6.7580     0.8740    -4.0660 h1         1 BQN       0.046500
     41 H20A         6.7890    -0.8510    -4.4560 h1         1 BQN       0.046500
     42 H25          7.3240    -2.5240    -2.7350 ha         1 BQN       0.113000
     43 H24          8.4950    -2.9070    -0.5720 ha         1 BQN       0.116000
     44 H23          8.9880    -0.9820     0.8890 h4         1 BQN       0.119000
     45 H22          7.2420     1.6500    -1.8130 h4         1 BQN       0.115000
     46 H18          5.9350     0.3720    -5.9250 ha         1 BQN       0.126000
     47 H17          4.4990     0.7910    -7.8830 ha         1 BQN       0.103000
     48 H16          2.0470     0.6910    -7.6640 ha         1 BQN       0.114000
     49 H15          1.0200     0.1760    -5.4840 ha         1 BQN       0.122000
     50 H26          3.0340     2.2290    -3.7530 ha         1 BQN       0.130000
     51 H27          3.1930     4.3640    -2.5630 ha         1 BQN       0.124000
     52 H7           3.3960     4.3200    -0.4270 DU         1 BQN       0.073000
     53 H6           3.5680     6.3620    -0.1990 DU         1 BQN       0.047000
     54 H5           3.4810     8.7300    -2.5970 h1         1 BQN       0.078000
     55 H5A          2.2500     7.4620    -2.4390 h1         1 BQN       0.078000
     56 H4           1.3950     9.5980    -3.4960 h1         1 BQN       0.058000
     57 H4A          0.5180     9.1160    -2.0330 h1         1 BQN       0.058000
     58 H3           2.0760    11.6630    -0.0020 h1         1 BQN       0.058000
     59 H3A          0.9130    10.3250     0.0080 h1         1 BQN       0.058000
     60 H2           2.9290     9.5600     1.1130 h1         1 BQN       0.078000
     61 H2A          3.9330    10.1220    -0.2380 h1         1 BQN       0.078000
@<TRIPOS>BOND
     1     1     2 1   
     2     2     3 1   
     3     2     4 1   
     4     2     5 1   
     5     5     6 1   
     6     5    11 1   
     7     6     7 1   
     8     6    29 1   
     9     7     8 1   
    10     7     9 1   
    11     7    10 1   
    12    11    12 1   
    13    11    27 1   
    14    12    13 1   
    15    13    14 1   
    16    13    26 1   
    17    14    15 1   
    18    14    23 1   
    19    15    16 1   
    20    16    17 1   
    21    16    40 1   
    22    16    41 1   
    23    17    18 1   
    24    17    22 1   
    25    18    19 1   
    26    18    42 1   
    27    19    20 1   
    28    19    43 1   
    29    20    21 1   
    30    20    44 1   
    31    21    22 1   
    32    22    45 1   
    33    23    24 1   
    34    23    46 1   
    35    24    25 1   
    36    24    47 1   
    37    25    26 1   
    38    25    48 1   
    39    26    49 1   
    40    27    28 1   
    41    27    50 1   
    42    28    29 1   
    43    28    51 1   
    44    29    30 1   
    45    29    52 1   
    46    30    31 1   
    47    30    52 1   
    48    31    32 1   
    49    31    53 1   
    50    32    33 1   
    51    32    34 1   
    52    32    53 1   
    53    34    35 1   
    54    34    39 1   
    55    35    36 1   
    56    35    54 1   
    57    35    55 1   
    58    36    37 1   
    59    36    56 1   
    60    36    57 1   
    61    37    38 1   
    62    38    39 1   
    63    38    58 1   
    64    38    59 1   
    65    39    60 1   
    66    39    61 1   
@<TRIPOS>SUBSTRUCTURE
     1 BQN         1 TEMP              0 ****  ****    0 ROOT
