@<TRIPOS>MOLECULE
molecule
   61    64     1     0     0
SMALL
bcc


@<TRIPOS>ATOM
      1 F6           0.0000     0.0000     0.0000 f          1 BQN      -0.206967
      2 C12          1.3980     0.0000     0.0000 c3         1 BQN       0.671200
      3 F4           1.8660     0.0000     1.3180 f          1 BQN      -0.206967
      4 F5           1.8650    -1.1420    -0.6600 f          1 BQN      -0.206967
      5 C11          1.9010     1.2310    -0.7100 ca         1 BQN      -0.139300
      6 C9           1.9910     2.4170    -0.0400 ca         1 BQN      -0.100300
      7 C10          1.5880     2.4950     1.4100 c3         1 BQN       0.671200
      8 F3           2.6790     2.1560     2.2170 f          1 BQN      -0.210633
      9 F2           1.1750     3.7990     1.7100 f          1 BQN      -0.210633
     10 F1           0.5350     1.6060     1.6510 f          1 BQN      -0.210633
     11 C13          2.2780     1.1550    -2.0500 ca         1 BQN       0.061900
     12 S            2.1680    -0.3780    -2.9090 ss         1 BQN      -0.078800
     13 C14          2.9010    -0.0120    -4.4700 ca         1 BQN      -0.098100
     14 C19          4.2880     0.0410    -4.5940 ca         1 BQN       0.187100
     15 O3           5.0790    -0.1880    -3.5140 os         1 BQN      -0.307900
     16 C20          6.4930    -0.1170    -3.7170 c3         1 BQN       0.188700
     17 C21          7.2020    -0.3980    -2.4170 ca         1 BQN      -0.226600
     18 C25          7.5530    -1.6950    -2.0760 ca         1 BQN      -0.065000
     19 C24          8.2050    -1.9060    -0.8700 ca         1 BQN      -0.256300
     20 C23          8.4810    -0.8250    -0.0550 ca         1 BQN       0.433200
     21 N2           8.1300     0.3960    -0.4120 nb         1 BQN      -0.687000
     22 C22          7.5150     0.6340    -1.5530 ca         1 BQN       0.445200
     23 C18          4.8580     0.3290    -5.8240 ca         1 BQN      -0.238000
     24 C17          4.0510     0.5630    -6.9230 ca         1 BQN      -0.057000
     25 C16          2.6750     0.5100    -6.7990 ca         1 BQN      -0.183000
     26 C15          2.0980     0.2170    -5.5780 ca         1 BQN      -0.039000
     27 C26          2.7440     2.2910    -2.7110 ca         1 BQN      -0.124000
     28 C27          2.8310     3.4820    -2.0490 ca         1 BQN      -0.081000
     29 C8           2.4570     3.5600    -0.7010 ca         1 BQN      -0.049800
     30 C7           2.5550     4.8380     0.0170 ce         1 BQN      -0.045200
     31 C6           2.6660     5.9940    -0.6740 cf         1 BQN      -0.243200
     32 C1           2.7630     7.2650     0.0410 c          1 BQN       0.672300
     33 O1           2.8400     7.2770     1.2560 o          1 BQN      -0.608100
     34 N1           2.7660     8.4250    -0.6450 n          1 BQN      -0.491800
     35 C5           2.5610     8.4430    -2.1030 c3         1 BQN       0.068500
     36 C4           1.4650     9.4680    -2.4220 c3         1 BQN       0.120400
     37 O2           1.7960    10.7170    -1.8120 os         1 BQN      -0.419600
     38 C3           1.8610    10.6720    -0.3840 c3         1 BQN       0.120400
     39 C2           2.9700     9.7110     0.0410 c3         1 BQN       0.068500
     40 H20          6.7580     0.8740    -4.0660 h1         1 BQN       0.044200
     41 H20A         6.7890    -0.8510    -4.4560 h1         1 BQN       0.044200
     42 H25          7.3240    -2.5240    -2.7350 ha         1 BQN       0.142000
     43 H24          8.4950    -2.9070    -0.5720 ha         1 BQN       0.143000
     44 H23          8.9880    -0.9820     0.8890 h4         1 BQN       0.027100
     45 H22          7.2420     1.6500    -1.8130 h4         1 BQN       0.025100
     46 H18          5.9350     0.3720    -5.9250 ha         1 BQN       0.141000
     47 H17          4.4990     0.7910    -7.8830 ha         1 BQN       0.136000
     48 H16          2.0470     0.6910    -7.6640 ha         1 BQN       0.139000
     49 H15          1.0200     0.1760    -5.4840 ha         1 BQN       0.150000
     50 H26          3.0340     2.2290    -3.7530 ha         1 BQN       0.153000
     51 H27          3.1930     4.3640    -2.5630 ha         1 BQN       0.145000
     52 H7           2.5370     4.8540     1.1000 ha         1 BQN       0.190000
     53 H6           2.6830     5.9780    -1.7570 ha         1 BQN       0.127000
     54 H5           2.2500     7.4620    -2.4390 h1         1 BQN       0.063450
     55 H5A          3.4810     8.7300    -2.5970 h1         1 BQN       0.063450
     56 H4           1.3950     9.5980    -3.4960 h1         1 BQN       0.056200
     57 H4A          0.5180     9.1160    -2.0330 h1         1 BQN       0.056200
     58 H3           2.0760    11.6630    -0.0020 h1         1 BQN       0.056200
     59 H3A          0.9130    10.3250     0.0080 h1         1 BQN       0.056200
     60 H2           3.9330    10.1220    -0.2380 h1         1 BQN       0.063450
     61 H2A          2.9290     9.5600     1.1130 h1         1 BQN       0.063450
@<TRIPOS>BOND
     1     1     2 1
     2     2     3 1
     3     2     4 1
     4     2     5 1
     5     5     6 ar
     6     5    11 ar
     7     6     7 1
     8     6    29 ar
     9     7     8 1
    10     7     9 1
    11     7    10 1
    12    11    12 1
    13    11    27 ar
    14    12    13 1
    15    13    14 ar
    16    13    26 ar
    17    14    15 1
    18    14    23 ar
    19    15    16 1
    20    16    17 1
    21    17    18 ar
    22    17    22 ar
    23    18    19 ar
    24    19    20 ar
    25    20    21 ar
    26    21    22 ar
    27    23    24 ar
    28    24    25 ar
    29    25    26 ar
    30    27    28 ar
    31    28    29 ar
    32    29    30 1
    33    30    31 2
    34    31    32 1
    35    32    33 2
    36    32    34 1
    37    34    35 1
    38    34    39 1
    39    35    36 1
    40    36    37 1
    41    37    38 1
    42    38    39 1
    43    16    40 1
    44    16    41 1
    45    18    42 1
    46    19    43 1
    47    20    44 1
    48    22    45 1
    49    23    46 1
    50    24    47 1
    51    25    48 1
    52    26    49 1
    53    27    50 1
    54    28    51 1
    55    30    52 1
    56    31    53 1
    57    35    54 1
    58    35    55 1
    59    36    56 1
    60    36    57 1
    61    38    58 1
    62    38    59 1
    63    39    60 1
    64    39    61 1
@<TRIPOS>SUBSTRUCTURE
     1 BQN         1 TEMP              0 ****  ****    0 ROOT
