@<TRIPOS>MOLECULE
BQP
  102   107     1     0     0
SMALL
bcc


@<TRIPOS>ATOM
      1 N1           0.0000     0.0000     0.0000 n3         1 BQP      -0.543600
      2 C2           1.4690     0.0000     0.0000 c3         1 BQP       0.148800
      3 C4           1.4500    -1.2410     2.1660 c3         1 BQP       0.181600
      4 C5          -0.0810    -1.2410     2.1090 c3         1 BQP      -0.051400
      5 C6          -0.5320    -1.2050     0.6480 c3         1 BQP       0.148800
      6 C15         -0.5270     0.1400    -1.3650 c3         1 BQP       0.174800
      7 C17         -0.1570     1.5190    -1.9160 c3         1 BQP       0.065700
      8 C21         -0.6020     3.8100    -5.3200 ca         1 BQP      -0.189300
      9 C22         -0.2000     5.0810    -5.6830 ca         1 BQP      -0.032000
     10 C23          0.5190     5.8610    -4.8000 ca         1 BQP      -0.116000
     11 C24          0.8410     5.3680    -3.5350 ca         1 BQP      -0.059500
     12 C25          0.4360     4.0890    -3.1680 ca         1 BQP      -0.119000
     13 C26         -0.2910     3.3120    -4.0600 ca         1 BQP       0.115900
     14 C3           1.9790     0.0000     1.4430 c3         1 BQP      -0.051400
     15 C42          1.6190     6.2040    -2.5870 cc         1 BQP       0.433800
     16 C46          3.0900     7.6750    -1.7800 cd         1 BQP      -0.234600
     17 C47          2.6350     7.1090    -2.9240 cc         1 BQP      -0.322600
     18 C51          3.1700     7.4350    -4.2980 c3         1 BQP       0.154300
     19 C53          4.9730     8.6790    -3.0330 c3         1 BQP       0.048000
     20 C54          4.1840     8.7120    -1.7170 c3         1 BQP       0.047900
     21 C62          1.6530     8.6510     1.0290 c3         1 BQP      -0.061400
     22 C64          1.8360     8.9980     2.5080 c3         1 BQP       0.232400
     23 C72          4.8400    10.8460    -4.8870 c3         1 BQP      -0.100400
     24 C75          4.5560    11.8400    -6.0150 c3         1 BQP      -0.034700
     25 C76          4.9610    11.2210    -7.3570 c3         1 BQP      -0.035900
     26 C77          4.7310    12.2410    -8.4730 c3         1 BQP       0.155800
     27 C79          5.1230    14.0840    -6.9490 c3         1 BQP       0.155800
     28 C80          5.3650    13.1190    -5.7870 c3         1 BQP      -0.035900
     29 C90          6.3080    13.8940   -10.4870 c3         1 BQP      -0.054700
     30 C91          7.7780    13.9100   -10.0650 c3         1 BQP      -0.022900
     31 C92          8.6470    13.4120   -11.2220 c3         1 BQP      -0.023400
     32 C93          8.4530    14.3250   -12.4340 c3         1 BQP      -0.025400
     33 C94          6.9830    14.3080   -12.8560 c3         1 BQP      -0.023400
     34 C95          6.1150    14.8060   -11.6990 c3         1 BQP      -0.022900
     35 F13          1.9410    -2.3930     1.5410 f          1 BQP      -0.235300
     36 N44          1.4720     6.2330    -1.2770 nd         1 BQP      -0.641800
     37 N45          2.3950     7.1520    -0.7540 na         1 BQP       0.517400
     38 N54          4.0300     8.6250    -4.1610 n          1 BQP      -0.166800
     39 N80          5.5280    13.4470    -8.2090 n3         1 BQP      -0.542600
     40 O68          0.9780    10.0890     2.8510 oh         1 BQP      -0.588800
     41 S19         -0.8060     1.6910    -3.6000 ss         1 BQP      -0.314000
     42 H2           1.8280    -0.8860    -0.5090 h1         1 BQP       0.019200
     43 H3           1.8280     0.8860    -0.5090 h1         1 BQP       0.019200
     44 H4           1.7720    -1.2200     3.2000 h1         1 BQP       0.023700
     45 H5          -0.4590    -2.1400     2.5820 hc         1 BQP       0.031950
     46 H6          -0.4600    -0.3680     2.6250 hc         1 BQP       0.031950
     47 H7          -0.1600    -2.0840     0.1350 h1         1 BQP       0.019200
     48 H8          -1.6140    -1.1880     0.6060 h1         1 BQP       0.019200
     49 H9          -1.6050     0.0350    -1.3480 h1         1 BQP       0.025200
     50 H10         -0.0990    -0.6290    -1.9970 h1         1 BQP       0.025200
     51 H11          0.9210     1.6230    -1.9320 h1         1 BQP       0.052200
     52 H12         -0.5850     2.2870    -1.2830 h1         1 BQP       0.052200
     53 H13         -0.4470     5.4660    -6.6660 ha         1 BQP       0.126000
     54 H14          0.8320     6.8570    -5.0880 ha         1 BQP       0.131000
     55 H15          0.6810     3.7020    -2.1860 ha         1 BQP       0.135000
     56 H16          1.6260     0.8900     1.9500 hc         1 BQP       0.031950
     57 H17          3.0620    -0.0180     1.4420 hc         1 BQP       0.031950
     58 H18          2.3490     7.6500    -4.9700 h1         1 BQP       0.041700
     59 H19          3.7530     6.6020    -4.6720 h1         1 BQP       0.041700
     60 H20          5.5690     7.7740    -3.0470 h1         1 BQP       0.034700
     61 H21          5.5400     9.5980    -3.1100 h1         1 BQP       0.034700
     62 H22          3.7460     9.6930    -1.5820 hc         1 BQP       0.026700
     63 H23          4.8480     8.4870    -0.8910 hc         1 BQP       0.026700
     64 H24          3.6010     7.7620     0.8430 h1         1 BQP       0.036700
     65 H25          2.3170     6.6220     1.2680 h1         1 BQP       0.036700
     66 H26          1.9050     9.5130     0.4230 hc         1 BQP       0.038200
     67 H27          0.6220     8.3720     0.8490 hc         1 BQP       0.038200
     68 H28          2.8660     9.2780     2.6890 h1         1 BQP      -0.015800
     69 H29          1.5840     8.1360     3.1150 h1         1 BQP      -0.015800
     70 H30          5.8790    10.5390    -4.9290 hc         1 BQP       0.031700
     71 H31          4.6420    11.3170    -3.9320 hc         1 BQP       0.031700
     72 H32          3.5000    12.0800    -6.0340 hc         1 BQP       0.044700
     73 H33          4.3590    10.3400    -7.5440 hc         1 BQP       0.026950
     74 H34          6.0090    10.9500    -7.3270 hc         1 BQP       0.026950
     75 H35          5.0330    11.8110    -9.4200 h1         1 BQP       0.010200
     76 H36          3.6810    12.5050    -8.5080 h1         1 BQP       0.010200
     77 H37          4.0700    14.3340    -6.9950 h1         1 BQP       0.010200
     78 H38          5.7070    14.9830    -6.7970 h1         1 BQP       0.010200
     79 H39          6.4190    12.8750    -5.7350 hc         1 BQP       0.026950
     80 H40          5.0500    13.5850    -4.8610 hc         1 BQP       0.026950
     81 H41          5.7900    15.3660    -9.0090 h1         1 BQP       0.010200
     82 H42          4.4100    14.4680    -9.6580 h1         1 BQP       0.010200
     83 H43          6.0220    12.8830   -10.7500 hc         1 BQP       0.035700
     84 H44          7.9140    13.2610    -9.2080 hc         1 BQP       0.017700
     85 H45          8.0680    14.9220    -9.8080 hc         1 BQP       0.017700
     86 H46          8.3550    12.4020   -11.4820 hc         1 BQP       0.012200
     87 H47          9.6880    13.4270   -10.9230 hc         1 BQP       0.012200
     88 H48          9.0670    13.9700   -13.2540 hc         1 BQP       0.011200
     89 H49          8.7410    15.3360   -12.1730 hc         1 BQP       0.011200
     90 H50          6.8470    14.9570   -13.7130 hc         1 BQP       0.012200
     91 H51          6.6940    13.2960   -13.1130 hc         1 BQP       0.012200
     92 H52          6.4060    15.8170   -11.4390 hc         1 BQP       0.017700
     93 H53          5.0740    14.7910   -11.9980 hc         1 BQP       0.017700
     94 H55          1.0910    10.3030     3.7630 ho         1 BQP       0.394000
     95 C33         -1.3860     2.9640    -6.2900 c3         1 BQP       0.647200
     96 C60          2.5700     7.4830     0.6620 c3         1 BQP      -0.014700
     97 C68          3.9530     9.6380    -5.0460 c          1 BQP       0.594100
     98 C87          5.4400    14.3920    -9.3300 c3         1 BQP       0.152800
     99 F47         -2.6280     2.6430    -5.7310 f          1 BQP      -0.205300
    100 F48         -1.5800     3.6760    -7.4790 f          1 BQP      -0.205300
    101 F49         -0.6790     1.7880    -6.5610 f          1 BQP      -0.205300
    102 O72          3.1700     9.5780    -5.9690 o          1 BQP      -0.644100
@<TRIPOS>BOND
     1     1     2 1   
     2     1     5 1   
     3     1     6 1   
     4     2    14 1   
     5     2    42 1   
     6     2    43 1   
     7     3     4 1   
     8     3    14 1   
     9     3    35 1   
    10     3    44 1   
    11     4     5 1   
    12     4    45 1   
    13     4    46 1   
    14     5    47 1   
    15     5    48 1   
    16     6     7 1   
    17     6    49 1   
    18     6    50 1   
    19     7    41 1   
    20     7    51 1   
    21     7    52 1   
    22     8     9 ar  
    23     8    13 ar  
    24     8    95 1   
    25     9    10 ar  
    26     9    53 1   
    27    10    11 ar  
    28    10    54 1   
    29    11    12 ar  
    30    11    15 1   
    31    12    13 ar  
    32    12    55 1   
    33    13    41 1   
    34    14    56 1   
    35    14    57 1   
    36    15    17 1   
    37    15    36 2   
    38    16    17 2   
    39    16    20 1   
    40    16    37 1   
    41    17    18 1   
    42    18    38 1   
    43    18    58 1   
    44    18    59 1   
    45    19    20 1   
    46    19    38 1   
    47    19    60 1   
    48    19    61 1   
    49    20    62 1   
    50    20    63 1   
    51    21    22 1   
    52    21    66 1   
    53    21    67 1   
    54    21    96 1   
    55    22    40 1   
    56    22    68 1   
    57    22    69 1   
    58    23    24 1   
    59    23    70 1   
    60    23    71 1   
    61    23    97 1   
    62    24    25 1   
    63    24    28 1   
    64    24    72 1   
    65    25    26 1   
    66    25    73 1   
    67    25    74 1   
    68    26    39 1   
    69    26    75 1   
    70    26    76 1   
    71    27    28 1   
    72    27    39 1   
    73    27    77 1   
    74    27    78 1   
    75    28    79 1   
    76    28    80 1   
    77    29    30 1   
    78    29    34 1   
    79    29    83 1   
    80    29    98 1   
    81    30    31 1   
    82    30    84 1   
    83    30    85 1   
    84    31    32 1   
    85    31    86 1   
    86    31    87 1   
    87    32    33 1   
    88    32    88 1   
    89    32    89 1   
    90    33    34 1   
    91    33    90 1   
    92    33    91 1   
    93    34    92 1   
    94    34    93 1   
    95    36    37 1   
    96    37    96 1   
    97    38    97 1   
    98    39    98 1   
    99    40    94 1   
   100    64    96 1   
   101    65    96 1   
   102    81    98 1   
   103    82    98 1   
   104    95    99 1   
   105    95   100 1   
   106    95   101 1   
   107    97   102 2   
@<TRIPOS>SUBSTRUCTURE
     1 BQP         1 TEMP              0 ****  ****    0 ROOT
