@<TRIPOS>MOLECULE
BQQ
   42    44     1     0     0
SMALL
bcc


@<TRIPOS>ATOM
      1 N            0.0000     0.0000     0.0000 n7         1 BQQ      -0.548200
      2 CA           1.4700     0.0000     0.0000 c3         1 BQQ       0.051500
      3 C            1.9730    -1.2300    -0.7100 c          1 BQQ       0.534100
      4 O            1.2440    -2.1890    -0.8520 o          1 BQQ      -0.543100
      5 CB           1.9770     0.0000     1.4440 c3         1 BQQ       0.153800
      6 CAE          7.4580    -6.8950    -5.0490 ca         1 BQQ       0.332200
      7 CAF          6.0810    -6.4010    -3.2690 ca         1 BQQ       0.393200
      8 CAG          6.4010    -4.7440    -4.9890 ca         1 BQQ      -0.144000
      9 CAH         -0.0160     1.1800     2.1450 c3         1 BQQ       0.143800
     10 CAI         -0.5240     1.1810     0.7010 c3         1 BQQ       0.144800
     11 CAQ          2.9560    -5.6970    -2.9800 c          1 BQQ       0.528600
     12 CAS          7.2400    -5.6500    -5.6270 ca         1 BQQ      -0.066700
     13 CAT          5.8090    -5.1290    -3.7810 ca         1 BQQ      -0.079300
     14 CAU          3.6960    -2.3970    -1.8430 cc         1 BQQ       0.416300
     15 CAV          3.6030    -4.4700    -2.6940 cd         1 BQQ       0.259800
     16 CAW          4.9090    -4.2090    -3.0600 cc         1 BQQ       0.040600
     17 NAK          6.8830    -7.2260    -3.9100 nb         1 BQQ      -0.535000
     18 NAL          3.0030    -3.4690    -2.0450 nd         1 BQQ      -0.525000
     19 NAM          1.4530     1.1800     2.1450 n7         1 BQQ      -0.585200
     20 NAO          3.2320    -1.2640    -1.1880 ns         1 BQQ      -0.078400
     21 OAC          3.5110    -6.5310    -3.6660 o          1 BQQ      -0.559100
     22 SAP          5.3130    -2.5840    -2.5090 ss         1 BQQ      -0.333300
     23 H1          -0.3340    -0.0030    -0.9440 hn         1 BQQ       0.262800
     24 H3           1.8290     0.8880    -0.5070 h1         1 BQQ       0.018700
     25 H4           1.6350    -0.8980     1.9450 h1         1 BQQ       0.016700
     26 H5           3.0600     0.0310     1.4450 h1         1 BQQ       0.016700
     27 H6           1.2730    -6.9730    -2.7010 hc         1 BQQ       0.030033
     28 H7           1.5920    -5.8720    -1.3540 hc         1 BQQ       0.030033
     29 H8           0.8770    -5.2550    -2.8490 hc         1 BQQ       0.030033
     30 H9           8.1120    -7.6050    -5.5430 h4         1 BQQ      -0.018900
     31 H10          5.6290    -6.7100    -2.3350 h4         1 BQQ      -0.012900
     32 H11          6.2120    -3.7660    -5.4150 ha         1 BQQ       0.118000
     33 H12         -0.3760     2.0660     2.6540 h1         1 BQQ       0.015200
     34 H13         -0.3770     0.2930     2.6530 h1         1 BQQ       0.015200
     35 H14         -0.1830     2.0780     0.2000 h1         1 BQQ       0.013200
     36 H15         -1.6070     1.1490     0.7000 h1         1 BQQ       0.013200
     37 H16          7.6970    -4.4140    -7.2450 hn         1 BQQ       0.266800
     38 H17          8.4610    -5.9700    -7.2890 hn         1 BQQ       0.266800
     39 H18          1.7870     1.1820     3.0890 hn         1 BQQ       0.257800
     40 H20          3.8240    -0.4630    -1.0960 hn         1 BQQ       0.175500
     41 NAB          7.8580    -5.3130    -6.8350 nv         1 BQQ      -0.438200
     42 CAA          1.5770    -5.9690    -2.4320 c3         1 BQQ      -0.079100
@<TRIPOS>BOND
     1     1     2 1   
     2     1    10 1   
     3     1    23 1   
     4     2     3 1   
     5     2     5 1   
     6     2    24 1   
     7     3     4 2   
     8     3    20 1   
     9     5    19 1   
    10     5    25 1   
    11     5    26 1   
    12     6    12 ar  
    13     6    17 ar  
    14     6    30 1   
    15     7    13 ar  
    16     7    17 ar  
    17     7    31 1   
    18     8    12 ar  
    19     8    13 ar  
    20     8    32 1   
    21     9    10 1   
    22     9    19 1   
    23     9    33 1   
    24     9    34 1   
    25    10    35 1   
    26    10    36 1   
    27    11    15 1   
    28    11    21 2   
    29    11    42 1   
    30    12    41 1   
    31    13    16 1   
    32    14    18 2   
    33    14    20 1   
    34    14    22 1   
    35    15    16 2   
    36    15    18 1   
    37    16    22 1   
    38    19    39 1   
    39    20    40 1   
    40    27    42 1   
    41    28    42 1   
    42    29    42 1   
    43    37    41 1   
    44    38    41 1   
@<TRIPOS>SUBSTRUCTURE
     1 BQQ         1 TEMP              0 ****  ****    0 ROOT
