@<TRIPOS>MOLECULE
molecule
   42    44     1     0     0
SMALL
bcc


@<TRIPOS>ATOM
      1 N            0.0000     0.0000     0.0000 n7         1 BQQ      -0.794200
      2 CA           1.4700     0.0000     0.0000 c3         1 BQQ       0.100500
      3 C            1.9730    -1.2300    -0.7100 c          1 BQQ       0.641100
      4 O            1.2440    -2.1890    -0.8520 o          1 BQQ      -0.502100
      5 CB           1.9770     0.0000     1.4440 c3         1 BQQ       0.166800
      6 CAE          7.4580    -6.8950    -5.0490 ca         1 BQQ       0.356200
      7 CAF          6.0810    -6.4010    -3.2690 ca         1 BQQ       0.420200
      8 CAG          6.4010    -4.7440    -4.9890 ca         1 BQQ      -0.160000
      9 CAH         -0.0160     1.1800     2.1450 c3         1 BQQ       0.154800
     10 CAI         -0.5240     1.1810     0.7010 c3         1 BQQ       0.159800
     11 CAQ          2.9560    -5.6970    -2.9800 c          1 BQQ       0.492600
     12 CAS          7.2400    -5.6500    -5.6270 ca         1 BQQ       0.078300
     13 CAT          5.8090    -5.1290    -3.7810 ca         1 BQQ      -0.094300
     14 CAU          3.6960    -2.3970    -1.8430 cc         1 BQQ       0.589300
     15 CAV          3.6030    -4.4700    -2.6940 cd         1 BQQ       0.313800
     16 CAW          4.9090    -4.2090    -3.0600 cc         1 BQQ      -0.022400
     17 NAK          6.8830    -7.2260    -3.9100 nb         1 BQQ      -0.649000
     18 NAL          3.0030    -3.4690    -2.0450 nd         1 BQQ      -0.658000
     19 NAM          1.4530     1.1800     2.1450 n7         1 BQQ      -0.823200
     20 NAO          3.2320    -1.2640    -1.1880 ns         1 BQQ      -0.536400
     21 OAC          3.5110    -6.5310    -3.6660 o          1 BQQ      -0.524100
     22 SAP          5.3130    -2.5840    -2.5090 ss         1 BQQ      -0.242300
     23 H1          -0.3340    -0.0030    -0.9440 hn         1 BQQ       0.367800
     24 H3           1.8290     0.8880    -0.5070 h1         1 BQQ       0.040700
     25 H4           1.6350    -0.8980     1.9450 h1         1 BQQ       0.047200
     26 H5           3.0600     0.0310     1.4450 h1         1 BQQ       0.047200
     27 H6           1.2730    -6.9730    -2.7010 hc         1 BQQ       0.066367
     28 H7           1.5920    -5.8720    -1.3540 hc         1 BQQ       0.066367
     29 H8           0.8770    -5.2550    -2.8490 hc         1 BQQ       0.066367
     30 H9           8.1120    -7.6050    -5.5430 h4         1 BQQ       0.020100
     31 H10          5.6290    -6.7100    -2.3350 h4         1 BQQ       0.030100
     32 H11          6.2120    -3.7660    -5.4150 ha         1 BQQ       0.138000
     33 H12         -0.3760     2.0660     2.6540 h1         1 BQQ       0.044700
     34 H13         -0.3770     0.2930     2.6530 h1         1 BQQ       0.044700
     35 H14         -0.1830     2.0780     0.2000 h1         1 BQQ       0.043200
     36 H15         -1.6070     1.1490     0.7000 h1         1 BQQ       0.043200
     37 H16          7.6970    -4.4140    -7.2450 hn         1 BQQ       0.431300
     38 H17          8.4610    -5.9700    -7.2890 hn         1 BQQ       0.431300
     39 H18          1.7870     1.1820     3.0890 hn         1 BQQ       0.361800
     40 H20          3.8240    -0.4630    -1.0960 hn         1 BQQ       0.336500
     41 NAB          7.8580    -5.3130    -6.8350 nv         1 BQQ      -0.919200
     42 CAA          1.5770    -5.9690    -2.4320 c3         1 BQQ      -0.176100
@<TRIPOS>BOND
     1    41    12 1
     2     6    12 ar
     3     6    17 ar
     4    12     8 ar
     5    17     7 ar
     6     8    13 ar
     7     7    13 ar
     8    13    16 1
     9    42    11 1
    10    16    15 2
    11    16    22 1
    12    11    15 1
    13    11    21 2
    14    15    18 1
    15    22    14 1
    16    18    14 2
    17    14    20 1
    18     4     3 2
    19    20     3 1
    20     3     2 1
    21     2     5 1
    22     2     1 1
    23     5    19 1
    24     9    19 1
    25     9    10 1
    26     1    10 1
    27     1    23 1
    28     2    24 1
    29     5    25 1
    30     5    26 1
    31    42    27 1
    32    42    28 1
    33    42    29 1
    34     6    30 1
    35     7    31 1
    36     8    32 1
    37     9    33 1
    38     9    34 1
    39    10    35 1
    40    10    36 1
    41    41    37 1
    42    41    38 1
    43    19    39 1
    44    20    40 1
@<TRIPOS>SUBSTRUCTURE
     1 BQQ         1 TEMP              0 ****  ****    0 ROOT
