@<TRIPOS>MOLECULE
BQR
   46    48     1     0     0
SMALL
bcc


@<TRIPOS>ATOM
      1 N            0.0000     0.0000     0.0000 nu         1 BQR      -0.491900
      2 CA           1.4650     0.0000     0.0000 c3         1 BQR       0.089800
      3 CAA         -8.1430    -0.0010     7.2470 c3         1 BQR       0.240700
      4 CAB        -11.0300     0.0180     2.4410 c3         1 BQR       0.241700
      5 CAE         -8.2820     0.0020     4.8720 ca         1 BQR       0.119100
      6 CAF         -8.9990     0.0070     3.6780 ca         1 BQR       0.123100
      7 CAG         -6.9000    -0.0030     4.8480 ca         1 BQR      -0.174000
      8 CAH         -8.3290     0.0090     2.4640 ca         1 BQR      -0.177000
      9 CAI         -6.2260    -0.0010     3.6270 cp         1 BQR      -0.040000
     10 CAJ         -6.9490     0.0050     2.4350 ca         1 BQR      -0.090000
     11 CAK         -4.7440    -0.0060     3.5970 cp         1 BQR       0.008000
     12 CAL         -4.0830     0.0000     2.3820 ca         1 BQR      -0.169300
     13 CAN         -4.0230    -0.0130     4.8010 ca         1 BQR      -0.126000
     14 CAO         -2.6800    -0.0060     2.3580 ca         1 BQR       0.334300
     15 CAQ         -0.6940    -0.0050     1.2020 ca         1 BQR       0.409900
     16 CAV          3.7800     0.0140    -3.0480 c3         1 BQR       0.086300
     17 CAW         -2.6650    -0.0170     4.7990 ca         1 BQR      -0.106300
     18 CAX         -1.9630    -0.0170     3.5800 ca         1 BQR       0.193300
     19 CAZ          0.0150    -0.0160     2.4170 ca         1 BQR       0.214900
     20 C            1.9670     0.0070    -1.4210 c          1 BQR       0.562100
     21 O            1.1780     0.0120    -2.3420 o          1 BQR      -0.638100
     22 NAP         -2.0130     0.0000     1.1960 nb         1 BQR      -0.636000
     23 NAU          3.2920     0.0080    -1.6670 ns         1 BQR      -0.184900
     24 NAY         -0.6230    -0.0220     3.5620 nb         1 BQR      -0.492000
     25 OAD        -10.3590     0.0110     3.7020 os         1 BQR      -0.292900
     26 H           -0.5000    -0.0100    -0.8670 hn         1 BQR       0.332800
     27 H1           1.8260     0.8820     0.5150 h1         1 BQR       0.027700
     28 H2           1.8260    -0.8870     0.5060 h1         1 BQR       0.027700
     29 H3          -8.7880     0.0010     8.1170 h1         1 BQR      -0.003300
     30 H4          -7.5350    -0.8980     7.2490 h1         1 BQR      -0.003300
     31 H5          -7.5000     0.8710     7.2720 h1         1 BQR      -0.003300
     32 H6         -12.1020     0.0210     2.6030 h1         1 BQR      -0.002967
     33 H7         -10.7520    -0.8660     1.8800 h1         1 BQR      -0.002967
     34 H8         -10.7470     0.9030     1.8850 h1         1 BQR      -0.002967
     35 HAG         -6.3410    -0.0070     5.7760 ha         1 BQR       0.131000
     36 HAH         -8.8890     0.0130     1.5370 ha         1 BQR       0.123000
     37 HAJ         -6.4280     0.0060     1.4850 ha         1 BQR       0.116000
     38 HAL         -4.6400     0.1340     1.4630 ha         1 BQR       0.129000
     39 HAN         -4.5570    -0.0130     5.7440 ha         1 BQR       0.111000
     40 H9           4.8630     0.0130    -3.0480 h1         1 BQR       0.012367
     41 H10          3.4200     0.9020    -3.5540 h1         1 BQR       0.012367
     42 H11          3.4180    -0.8670    -3.5630 h1         1 BQR       0.012367
     43 HAW         -2.1220    -0.0220     5.7360 ha         1 BQR       0.113000
     44 HAZ          1.0980    -0.0200     2.4060 h4         1 BQR      -0.011900
     45 HAU          3.9420     0.0110    -0.9060 hn         1 BQR       0.171500
     46 OAC         -8.9420     0.0060     6.0610 os         1 BQR      -0.293900
@<TRIPOS>BOND
     1     1     2 1   
     2     1    15 1   
     3     1    26 1   
     4     2    20 1   
     5     2    27 1   
     6     2    28 1   
     7     3    29 1   
     8     3    30 1   
     9     3    31 1   
    10     3    46 1   
    11     4    25 1   
    12     4    32 1   
    13     4    33 1   
    14     4    34 1   
    15     5     6 ar  
    16     5     7 ar  
    17     5    46 1   
    18     6     8 ar  
    19     6    25 1   
    20     7     9 ar  
    21     7    35 1   
    22     8    10 ar  
    23     8    36 1   
    24     9    10 ar  
    25     9    11 1   
    26    10    37 1   
    27    11    12 ar  
    28    11    13 ar  
    29    12    14 ar  
    30    12    38 1   
    31    13    17 ar  
    32    13    39 1   
    33    14    18 ar  
    34    14    22 ar  
    35    15    19 ar  
    36    15    22 ar  
    37    16    23 1   
    38    16    40 1   
    39    16    41 1   
    40    16    42 1   
    41    17    18 ar  
    42    17    43 1   
    43    18    24 ar  
    44    19    24 ar  
    45    19    44 1   
    46    20    21 2   
    47    20    23 1   
    48    23    45 1   
@<TRIPOS>SUBSTRUCTURE
     1 BQR         1 TEMP              0 ****  ****    0 ROOT
