@<TRIPOS>MOLECULE
molecule
  101   106     1     0     0
SMALL
bcc


@<TRIPOS>ATOM
      1 C2           0.0000     0.0000     0.0000 c3         1 BQS       0.162800
      2 C3           1.5300     0.0000     0.0000 c3         1 BQS      -0.078400
      3 C5           1.4710    -1.2220     2.1760 c3         1 BQS      -0.078400
      4 C17         -2.3490    -1.5430    -0.8460 c3         1 BQS      -0.015300
      5 C22         -5.9140    -2.3310    -4.5280 ca         1 BQS      -0.068000
      6 C23         -4.8410    -2.3990    -5.3950 ca         1 BQS      -0.135000
      7 C24         -3.5440    -2.2450    -4.9110 ca         1 BQS      -0.065500
      8 C25         -3.3320    -2.0220    -3.5540 ca         1 BQS      -0.135000
      9 C21         -5.7070    -2.1110    -3.1800 ca         1 BQS      -0.173300
     10 C26         -4.4150    -1.9550    -2.6890 ca         1 BQS       0.079900
     11 C4           2.0360     0.0000     1.4460 c3         1 BQS      -0.082400
     12 C42         -2.3900    -2.3180    -5.8420 cc         1 BQS       0.396800
     13 C46         -1.0880    -2.9130    -7.5540 cc         1 BQS      -0.059600
     14 C47         -2.2880    -3.1450    -6.9700 cd         1 BQS      -0.311600
     15 C51         -3.3020    -4.1370    -7.4880 c3         1 BQS       0.191300
     16 C53         -1.4350    -4.8690    -9.0290 c3         1 BQS       0.109000
     17 C54         -0.6010    -3.6020    -8.8040 c3         1 BQS      -0.037100
     18 C6          -0.0580    -1.1860     2.1130 c3         1 BQS       0.162800
     19 C62          0.7590    -0.2140    -8.0150 c3         1 BQS      -0.106400
     20 C64          2.1510     0.3510    -8.3050 c3         1 BQS      -0.093100
     21 C72         -3.2600    -5.0700   -11.2160 c3         1 BQS      -0.153400
     22 C75         -4.4450    -5.0880   -12.1850 c3         1 BQS      -0.056700
     23 C76         -3.9440    -5.4010   -13.5970 c3         1 BQS      -0.078900
     24 C77         -5.1410    -5.4780   -14.5500 c3         1 BQS       0.165800
     25 C79         -6.5930    -6.2230   -12.7600 c3         1 BQS       0.165800
     26 C80         -5.4410    -6.1680   -11.7530 c3         1 BQS      -0.078900
     27 C87         -7.1530    -6.7220   -15.0610 c3         1 BQS       0.164800
     28 C90         -7.7870    -8.0980   -14.8400 c3         1 BQS      -0.066700
     29 C91         -6.7650    -9.1890   -15.1630 c3         1 BQS      -0.072900
     30 C92         -7.3990   -10.5640   -14.9430 c3         1 BQS      -0.079400
     31 C93         -8.6160   -10.7170   -15.8580 c3         1 BQS      -0.080400
     32 C94         -9.6380    -9.6250   -15.5340 c3         1 BQS      -0.079400
     33 C95         -9.0040    -8.2500   -15.7560 c3         1 BQS      -0.072900
     34 F45         -6.7720    -3.0320    -1.2700 f          1 BQS      -0.218300
     35 F46         -6.8990    -0.7790    -1.6200 f          1 BQS      -0.218300
     36 F47         -8.0680    -2.2110    -2.9620 f          1 BQS      -0.218300
     37 N1          -0.4910    -1.1880     0.7100 n3         1 BQS      -0.729600
     38 N44         -1.2790    -1.6120    -5.7590 nd         1 BQS      -0.499800
     39 N45         -0.4480    -1.9790    -6.8290 na         1 BQS       0.081400
     40 N54         -2.8580    -4.5530    -8.8310 n          1 BQS      -0.497800
     41 N80         -6.0630    -6.5250   -14.0960 n3         1 BQS      -0.733600
     42 O72         -4.9040    -4.3780    -9.6700 o          1 BQS      -0.609100
     43 S19         -4.1540    -1.6730    -0.9690 ss         1 BQS      -0.222000
     44 H1          -0.3590    -0.0170    -1.0220 h1         1 BQS       0.034950
     45 H2          -0.3600     0.8920     0.4990 h1         1 BQS       0.034950
     46 H3           1.8910     0.8860    -0.5080 hc         1 BQS       0.048700
     47 H4           1.8910    -0.8860    -0.5080 hc         1 BQS       0.048700
     48 H5           1.7890    -1.2020     3.2120 hc         1 BQS       0.048700
     49 H6           1.8300    -2.1250     1.6990 hc         1 BQS       0.048700
     50 H7          -2.2990    -2.1150     1.2250 h1         1 BQS       0.046700
     51 H8          -2.4050    -0.3710     0.9540 h1         1 BQS       0.046700
     52 H9          -2.0030    -0.7200    -1.4610 h1         1 BQS       0.074700
     53 H10         -1.8960    -2.4650    -1.1900 h1         1 BQS       0.074700
     54 H11         -6.9220    -2.4520    -4.9060 ha         1 BQS       0.156000
     55 H12         -5.0090    -2.5730    -6.4510 ha         1 BQS       0.154000
     56 H13         -2.3250    -1.9010    -3.1740 ha         1 BQS       0.155000
     57 H14          1.7040     0.9030     1.9440 hc         1 BQS       0.040700
     58 H15          3.1180    -0.0460     1.4500 hc         1 BQS       0.040700
     59 H16         -4.2760    -3.6670    -7.5520 h1         1 BQS       0.070200
     60 H17         -3.3430    -4.9970    -6.8310 h1         1 BQS       0.070200
     61 H18         -1.2980    -5.1850   -10.0560 h1         1 BQS       0.061700
     62 H19         -1.1440    -5.6010    -8.2860 h1         1 BQS       0.061700
     63 H20          0.4410    -3.8720    -8.6860 hc         1 BQS       0.060200
     64 H21         -0.7160    -2.9380    -9.6520 hc         1 BQS       0.060200
     65 H22         -0.4170    -0.2860     2.5980 h1         1 BQS       0.034950
     66 H23         -0.4600    -2.0580     2.6140 h1         1 BQS       0.034950
     67 H24          1.4860    -2.1930    -7.5980 h1         1 BQS       0.066200
     68 H25          1.3580    -1.1490    -6.1760 h1         1 BQS       0.066200
     69 H26          0.1490     0.5500    -7.5490 hc         1 BQS       0.057200
     70 H27          0.2970    -0.5290    -8.9430 hc         1 BQS       0.057200
     71 H28          2.6010     0.6940    -7.3810 hc         1 BQS       0.038367
     72 H29          2.7710    -0.4210    -8.7440 hc         1 BQS       0.038367
     73 H30          2.0670     1.1820    -8.9960 hc         1 BQS       0.038367
     74 H31         -2.8290    -6.0620   -11.1540 hc         1 BQS       0.059700
     75 H32         -2.5120    -4.3730   -11.5740 hc         1 BQS       0.059700
     76 H33         -4.9360    -4.1230   -12.1820 hc         1 BQS       0.067700
     77 H34         -3.2730    -4.6160   -13.9240 hc         1 BQS       0.052700
     78 H35         -3.4240    -6.3510   -13.5940 hc         1 BQS       0.052700
     79 H36         -5.6550    -4.5250   -14.5600 h1         1 BQS       0.034450
     80 H37         -4.7910    -5.7150   -15.5480 h1         1 BQS       0.034450
     81 H38         -7.2910    -6.9970   -12.4660 h1         1 BQS       0.034450
     82 H39         -7.0970    -5.2640   -12.7820 h1         1 BQS       0.034450
     83 H40         -5.8320    -5.9270   -10.7720 hc         1 BQS       0.052700
     84 H41         -4.9420    -7.1290   -11.7240 hc         1 BQS       0.052700
     85 H42         -6.7580    -6.6640   -16.0680 h1         1 BQS       0.032700
     86 H43         -7.9030    -5.9530   -14.9210 h1         1 BQS       0.032700
     87 H44         -8.1010    -8.1940   -13.8080 hc         1 BQS       0.054700
     88 H45         -5.9060    -9.0810   -14.5120 hc         1 BQS       0.043700
     89 H46         -6.4550    -9.0980   -16.1970 hc         1 BQS       0.043700
     90 H47         -6.6750   -11.3350   -15.1750 hc         1 BQS       0.039450
     91 H48         -7.7120   -10.6540   -13.9100 hc         1 BQS       0.039450
     92 H49         -9.0660   -11.6900   -15.6980 hc         1 BQS       0.038700
     93 H50         -8.3040   -10.6230   -16.8910 hc         1 BQS       0.038700
     94 H51        -10.4980    -9.7340   -16.1840 hc         1 BQS       0.039450
     95 H52         -9.9470    -9.7170   -14.5000 hc         1 BQS       0.039450
     96 H53         -9.7280    -7.4790   -15.5240 hc         1 BQS       0.043700
     97 H54         -8.6910    -8.1600   -16.7890 hc         1 BQS       0.043700
     98 C15         -1.9530    -1.2930     0.6110 c3         1 BQS       0.177800
     99 C33         -6.8830    -2.0320    -2.2410 c3         1 BQS       0.673200
    100 C60          0.8850    -1.4380    -7.1060 c3         1 BQS       0.072300
    101 C68         -3.7340    -4.6420    -9.8510 c          1 BQS       0.666100
@<TRIPOS>BOND
     1    20    19 1
     2    19   100 1
     3    17    16 1
     4    17    13 1
     5   100    39 1
     6    16    40 1
     7    13    39 1
     8    13    14 2
     9    39    38 1
    10    40    15 1
    11    40   101 1
    12    26    25 1
    13    26    22 1
    14    14    15 1
    15    14    12 1
    16    38    12 2
    17    25    41 1
    18    21    22 1
    19    21   101 1
    20    12     7 1
    21    22    23 1
    22   101    42 2
    23     7     6 ar
    24     7     8 ar
    25    41    27 1
    26    41    24 1
    27     6     5 ar
    28    27    28 1
    29    23    24 1
    30     8    10 ar
    31     5     9 ar
    32    28    33 1
    33    28    29 1
    34    10     9 ar
    35    10    43 1
    36     9    99 1
    37    33    32 1
    38    29    30 1
    39    43     4 1
    40     4    98 1
    41    34    99 1
    42    99    36 1
    43    99    35 1
    44    32    31 1
    45    98    37 1
    46    37    18 1
    47    37     1 1
    48    30    31 1
    49    18     3 1
    50     3    11 1
    51     1     2 1
    52     2    11 1
    53     1    44 1
    54     1    45 1
    55     2    46 1
    56     2    47 1
    57     3    48 1
    58     3    49 1
    59    98    50 1
    60    98    51 1
    61     4    52 1
    62     4    53 1
    63     5    54 1
    64     6    55 1
    65     8    56 1
    66    11    57 1
    67    11    58 1
    68    15    59 1
    69    15    60 1
    70    16    61 1
    71    16    62 1
    72    17    63 1
    73    17    64 1
    74    18    65 1
    75    18    66 1
    76   100    67 1
    77   100    68 1
    78    19    69 1
    79    19    70 1
    80    20    71 1
    81    20    72 1
    82    20    73 1
    83    21    74 1
    84    21    75 1
    85    22    76 1
    86    23    77 1
    87    23    78 1
    88    24    79 1
    89    24    80 1
    90    25    81 1
    91    25    82 1
    92    26    83 1
    93    26    84 1
    94    27    85 1
    95    27    86 1
    96    28    87 1
    97    29    88 1
    98    29    89 1
    99    30    90 1
   100    30    91 1
   101    31    92 1
   102    31    93 1
   103    32    94 1
   104    32    95 1
   105    33    96 1
   106    33    97 1
@<TRIPOS>SUBSTRUCTURE
     1 BQS         1 TEMP              0 ****  ****    0 ROOT
