@<TRIPOS>MOLECULE
molecule
   30    31     1     0     0
SMALL
bcc


@<TRIPOS>ATOM
      1 N            0.0000     0.0000     0.0000 nz         1 BQT      -0.801600
      2 CA           1.4690     0.0000     0.0000 c3         1 BQT       0.013500
      3 C            1.9710     1.2310    -0.7100 c          1 BQT       0.621100
      4 O            1.2430     2.1900    -0.8500 o          1 BQT      -0.505100
      5 CB           1.9790     0.0000     1.4430 c3         1 BQT      -0.107100
      6 CAE          4.9920     6.1690    -4.5160 c3         1 BQT      -0.082400
      7 CAF          4.0260     6.8300    -3.5270 c3         1 BQT      -0.166400
      8 CAG          5.8330     5.1100    -3.7980 c3         1 BQT      -0.004100
      9 CAK          3.0410     5.7810    -3.0440 c          1 BQT       0.492600
     10 CAM          3.6920     2.3980    -1.8460 cc         1 BQT       0.504300
     11 CAN          4.9190     4.1660    -3.0530 cc         1 BQT      -0.116700
     12 CAO          3.6260     4.4610    -2.7010 cd         1 BQT       0.301800
     13 NAH          3.0030     3.4730    -2.0490 nd         1 BQT      -0.616000
     14 NAI          3.2300     1.2650    -1.1910 ns         1 BQT      -0.499400
     15 SAJ          5.2960     2.5900    -2.5190 ss         1 BQT      -0.127300
     16 H1          -0.3340     0.7800     0.5300 hn         1 BQT       0.464800
     17 H2          -0.3340    -0.8500     0.4110 hn         1 BQT       0.464800
     18 H4           1.8300    -0.8840    -0.5110 hx         1 BQT       0.111700
     19 H5           2.3660    -0.8990     0.9790 hc         1 BQT       0.090367
     20 H6           2.7260     0.7550     1.6580 hc         1 BQT       0.090367
     21 H7           1.2160    -0.1710     2.1920 hc         1 BQT       0.090367
     22 H9           4.4250     5.6980    -5.3100 hc         1 BQT       0.064200
     23 H10          4.5970     7.1790    -2.6750 hc         1 BQT       0.085200
     24 H11          3.4740     7.5990    -4.0530 hc         1 BQT       0.085200
     25 H12          6.4620     5.6120    -3.0730 hc         1 BQT       0.073700
     26 H13          6.3690     4.5400    -4.5470 hc         1 BQT       0.073700
     27 H14          3.8230     0.4650    -1.0960 hn         1 BQT       0.344500
     28 OAC          1.8530     6.0080    -2.9460 o          1 BQT      -0.475100
     29 HN3         -0.3340     0.0690    -0.9410 hn         1 BQT       0.464800
     30 H8           5.6480     6.9230    -4.9340 hc         1 BQT       0.064200
@<TRIPOS>BOND
     1     8     6 1
     2     8    11 1
     3     7     6 1
     4     7     9 1
     5    11    15 1
     6    11    12 2
     7     9    12 1
     8     9    28 2
     9    15    10 1
    10    12    13 1
    11     4     3 2
    12    13    10 2
    13    10    14 1
    14     5     2 1
    15     3    14 1
    16     3     2 1
    17     2     1 1
    18     1    16 1
    19     1    17 1
    20     2    18 1
    21     5    19 1
    22     5    20 1
    23     5    21 1
    24     6    30 1
    25     6    22 1
    26     7    23 1
    27     7    24 1
    28     8    25 1
    29     8    26 1
    30    14    27 1
    31    29     1 1
@<TRIPOS>SUBSTRUCTURE
     1 BQT         1 TEMP              0 ****  ****    0 ROOT
