@<TRIPOS>MOLECULE
BQV
   33    34     1     0     0
SMALL
bcc


@<TRIPOS>ATOM
      1 C14          0.0000     0.0000     0.0000 cc         1 BQV      -0.095000
      2 C15          1.3850     0.0000     0.0000 cc         1 BQV      -0.118000
      3 C16          1.9480     0.0000     1.2080 cd         1 BQV       0.013900
      4 C18         -4.4730    -1.2010     3.9940 ca         1 BQV      -0.052000
      5 C19         -5.7950    -1.2100     4.4040 ca         1 BQV      -0.108000
      6 C20         -6.4630    -0.0220     4.6130 ca         1 BQV      -0.066000
      7 C05         -8.6730     4.6620     3.6420 c3         1 BQV       0.021700
      8 C08         -5.8040     1.1920     4.4110 ca         1 BQV      -0.173600
      9 C09         -4.4700     1.1940     3.9990 ca         1 BQV      -0.011000
     10 C10         -3.8140    -0.0020     3.7930 ca         1 BQV      -0.098300
     11 C11         -2.3720    -0.0010     3.3520 c3         1 BQV       0.141000
     12 C13         -0.5610    -0.0000     1.2180 cd         1 BQV       0.141800
     13 N03         -7.8020     2.4630     5.0340 ns         1 BQV      -0.322300
     14 O01         -5.9370     3.5240     4.4590 o          1 BQV      -0.609100
     15 O06         -7.7340     4.6300     6.1390 o          1 BQV      -0.569300
     16 O07         -9.8950     3.5030     5.7130 o          1 BQV      -0.569300
     17 S04         -8.5980     3.8930     5.2840 s6         1 BQV       0.954600
     18 S12         -2.2940    -0.0020     1.5400 ss         1 BQV      -0.282000
     19 S17          0.6990    -0.0000     2.4460 ss         1 BQV      -0.284800
     20 H1          -0.5840     0.0000    -0.9120 ha         1 BQV       0.131000
     21 H2           1.9680     0.0000    -0.9140 ha         1 BQV       0.123000
     22 H3           3.0150    -0.0000     1.3980 h4         1 BQV       0.150000
     23 H4          -3.9520    -2.1370     3.8310 ha         1 BQV       0.112000
     24 H5          -6.3050    -2.1530     4.5600 ha         1 BQV       0.110000
     25 H6          -7.4980    -0.0310     4.9340 ha         1 BQV       0.103000
     26 H7          -8.7730     3.8910     2.8870 h1         1 BQV       0.068033
     27 H8          -7.7650     5.2260     3.4650 h1         1 BQV       0.068033
     28 H9          -9.5270     5.3270     3.5940 h1         1 BQV       0.068033
     29 H10         -3.9530     2.1320     3.8400 ha         1 BQV       0.135000
     30 H11         -1.8770    -0.8840     3.7350 h1         1 BQV       0.051700
     31 H12         -1.8790     0.8850     3.7340 h1         1 BQV       0.051700
     32 H13         -8.2660     1.5940     5.2110 hn         1 BQV       0.240500
     33 C02         -6.5140     2.4690     4.6350 c          1 BQV       0.673700
@<TRIPOS>BOND
     1     1     2 1   
     2     1    12 2   
     3     1    20 1   
     4     2     3 2   
     5     2    21 1   
     6     3    19 1   
     7     3    22 1   
     8     4     5 ar  
     9     4    10 ar  
    10     4    23 1   
    11     5     6 ar  
    12     5    24 1   
    13     6     8 ar  
    14     6    25 1   
    15     7    17 1   
    16     7    26 1   
    17     7    27 1   
    18     7    28 1   
    19     8     9 ar  
    20     8    33 1   
    21     9    10 ar  
    22     9    29 1   
    23    10    11 1   
    24    11    18 1   
    25    11    30 1   
    26    11    31 1   
    27    12    18 1   
    28    12    19 1   
    29    13    17 1   
    30    13    32 1   
    31    13    33 1   
    32    14    33 2   
    33    15    17 2   
    34    16    17 2   
@<TRIPOS>SUBSTRUCTURE
     1 BQV         1 TEMP              0 ****  ****    0 ROOT
