@<TRIPOS>MOLECULE
molecule
   33    34     1     0     0
SMALL
bcc


@<TRIPOS>ATOM
      1 C14          0.0000     0.0000     0.0000 cc         1 BQV      -0.139000
      2 C15          1.3850     0.0000     0.0000 cc         1 BQV      -0.145000
      3 C16          1.9480     0.0000     1.2080 cd         1 BQV      -0.068100
      4 C18         -4.4730    -1.2010     3.9940 ca         1 BQV      -0.081000
      5 C19         -5.7950    -1.2100     4.4040 ca         1 BQV      -0.136000
      6 C20         -6.4630    -0.0220     4.6130 ca         1 BQV      -0.091000
      7 C05         -8.6730     4.6620     3.6420 c3         1 BQV      -0.235300
      8 C08         -5.8040     1.1920     4.4110 ca         1 BQV      -0.159600
      9 C09         -4.4700     1.1940     3.9990 ca         1 BQV      -0.044000
     10 C10         -3.8140    -0.0020     3.7930 ca         1 BQV      -0.089300
     11 C11         -2.3720    -0.0010     3.3520 c3         1 BQV       0.033000
     12 C13         -0.5610    -0.0000     1.2180 cd         1 BQV       0.073800
     13 N03         -7.8020     2.4630     5.0340 ns         1 BQV      -0.654300
     14 O01         -5.9370     3.5240     4.4590 o          1 BQV      -0.568100
     15 O06         -7.7340     4.6300     6.1390 o          1 BQV      -0.609800
     16 O07         -9.8950     3.5030     5.7130 o          1 BQV      -0.609800
     17 S04         -8.5980     3.8930     5.2840 s6         1 BQV       1.315600
     18 S12         -2.2940    -0.0020     1.5400 ss         1 BQV      -0.188000
     19 S17          0.6990    -0.0000     2.4460 ss         1 BQV      -0.174800
     20 H1          -0.5840     0.0000    -0.9120 ha         1 BQV       0.156000
     21 H2           1.9680     0.0000    -0.9140 ha         1 BQV       0.151000
     22 H3           3.0150    -0.0000     1.3980 h4         1 BQV       0.172000
     23 H4          -3.9520    -2.1370     3.8310 ha         1 BQV       0.143000
     24 H5          -6.3050    -2.1530     4.5600 ha         1 BQV       0.141000
     25 H6          -7.4980    -0.0310     4.9340 ha         1 BQV       0.128000
     26 H7          -8.7730     3.8910     2.8870 h1         1 BQV       0.104700
     27 H8          -7.7650     5.2260     3.4650 h1         1 BQV       0.104700
     28 H9          -9.5270     5.3270     3.5940 h1         1 BQV       0.104700
     29 H10         -3.9530     2.1320     3.8400 ha         1 BQV       0.165000
     30 H11         -1.8770    -0.8840     3.7350 h1         1 BQV       0.077200
     31 H12         -1.8790     0.8850     3.7340 h1         1 BQV       0.077200
     32 H13         -8.2660     1.5940     5.2110 hn         1 BQV       0.348500
     33 C02         -6.5140     2.4690     4.6350 c          1 BQV       0.698700
@<TRIPOS>BOND
     1     5     6 ar
     2     5     4 ar
     3     6     8 ar
     4     4    10 ar
     5    14    33 2
     6     8    33 1
     7     8     9 ar
     8    33    13 1
     9    10     9 ar
    10    10    11 1
    11    18    11 1
    12    18    12 1
    13     7    17 1
    14     1    12 2
    15     1     2 1
    16    12    19 1
    17    13    17 1
    18     2     3 2
    19    17    15 2
    20    17    16 2
    21    19     3 1
    22     1    20 1
    23     2    21 1
    24     3    22 1
    25     4    23 1
    26     5    24 1
    27     6    25 1
    28     7    26 1
    29     7    27 1
    30     7    28 1
    31     9    29 1
    32    11    30 1
    33    11    31 1
    34    13    32 1
@<TRIPOS>SUBSTRUCTURE
     1 BQV         1 TEMP              0 ****  ****    0 ROOT
