@<TRIPOS>MOLECULE
BQW
   35    35     1     0     0
SMALL
bcc


@<TRIPOS>ATOM
      1 N            0.0000     0.0000     0.0000 nu         1 BQW      -0.474200
      2 CA           1.4660     0.0000     0.0000 c3         1 BQW       0.023500
      3 C            1.9670     1.2310    -0.7100 c          1 BQW       0.565100
      4 O            1.1780     2.0290    -1.1700 o          1 BQW      -0.594100
      5 CB           1.9750     0.0000     1.4420 c3         1 BQW      -0.012100
      6 CAG          5.3020     3.1650    -3.7040 c3         1 BQW       0.108700
      7 CAL         -0.6870    -1.1860     0.1040 c2         1 BQW       0.251100
      8 CAM          7.3020     3.5730    -2.2620 c          1 BQW       0.583100
      9 CAO          6.0810     2.7080    -2.4390 c3         1 BQW       0.017500
     10 CAP          3.7800     2.6420    -1.5240 c3         1 BQW       0.306000
     11 NAC         -1.9900    -1.1860     0.1090 n2         1 BQW      -0.609100
     12 NAD          0.0010    -2.3730     0.2010 nz         1 BQW       0.180400
     13 NAH          5.2180     2.8340    -1.2620 n7         1 BQW      -0.581200
     14 NAI          3.2920     1.4450    -0.8340 ns         1 BQW      -0.156900
     15 SAK          3.6540     2.4250    -3.3430 ss         1 BQW      -0.416200
     16 H1          -0.5000     0.8660    -0.0370 hn         1 BQW       0.364800
     17 H2           1.8270    -0.8840    -0.5110 h1         1 BQW       0.020700
     18 H3           1.2120    -0.1710     2.1910 hc         1 BQW       0.032033
     19 H4           2.3630    -0.8990     0.9790 hc         1 BQW       0.032033
     20 H5           2.7220     0.7550     1.6580 hc         1 BQW       0.032033
     21 H6           8.4430     4.0590    -3.9920 hc         1 BQW       0.030700
     22 H7           8.5150     2.3560    -3.5200 hc         1 BQW       0.030700
     23 H8           9.4050     3.5700    -2.5910 hc         1 BQW       0.030700
     24 H10         -2.4920    -0.3230     0.0390 hn         1 BQW       0.383400
     25 H11         -0.6480    -3.1280     0.3050 hn         1 BQW       0.226133
     26 H12          0.6080    -2.3440     0.9960 hn         1 BQW       0.226133
     27 H13          3.9420     0.7920    -0.4450 hn         1 BQW       0.179500
     28 H14          5.2420     4.2450    -3.7580 h1         1 BQW       0.070700
     29 H15          6.3800     1.6740    -2.5550 h1         1 BQW       0.039700
     30 H16          3.2220     3.5160    -1.2120 h3         1 BQW       0.106700
     31 H17          5.5600     1.8980    -1.3470 hn         1 BQW       0.279800
     32 OAE          7.3200     4.4240    -1.4050 o          1 BQW      -0.494100
     33 CAA          8.5010     3.3760    -3.1540 c3         1 BQW      -0.082100
     34 HAD3         0.5440    -2.5140    -0.6280 hn         1 BQW       0.226133
     35 H9           5.7330     2.7400    -4.6030 h1         1 BQW       0.070700
@<TRIPOS>BOND
     1     1     2 1   
     2     1     7 1   
     3     1    16 1   
     4     2     3 1   
     5     2     5 1   
     6     2    17 1   
     7     3     4 2   
     8     3    14 1   
     9     5    18 1   
    10     5    19 1   
    11     5    20 1   
    12     6     9 1   
    13     6    15 1   
    14     6    28 1   
    15     6    35 1   
    16     7    11 2   
    17     7    12 1   
    18     8     9 1   
    19     8    32 2   
    20     8    33 1   
    21     9    13 1   
    22     9    29 1   
    23    10    13 1   
    24    10    14 1   
    25    10    15 1   
    26    10    30 1   
    27    11    24 1   
    28    12    25 1   
    29    12    26 1   
    30    12    34 1   
    31    13    31 1   
    32    14    27 1   
    33    21    33 1   
    34    22    33 1   
    35    23    33 1   
@<TRIPOS>SUBSTRUCTURE
     1 BQW         1 TEMP              0 ****  ****    0 ROOT
