@<TRIPOS>MOLECULE
molecule
   35    35     1     0     0
SMALL
bcc


@<TRIPOS>ATOM
      1 N            0.0000     0.0000     0.0000 nu         1 BQW      -0.840200
      2 CA           1.4660     0.0000     0.0000 c3         1 BQW       0.124500
      3 C            1.9670     1.2310    -0.7100 c          1 BQW       0.654100
      4 O            1.1780     2.0290    -1.1700 o          1 BQW      -0.549100
      5 CB           1.9750     0.0000     1.4420 c3         1 BQW      -0.111100
      6 CAG          5.3020     3.1650    -3.7040 c3         1 BQW       0.034700
      7 CAL         -0.6870    -1.1860     0.1040 c2         1 BQW       0.697100
      8 CAM          7.3020     3.5730    -2.2620 c          1 BQW       0.562100
      9 CAO          6.0810     2.7080    -2.4390 c3         1 BQW       0.000500
     10 CAP          3.7800     2.6420    -1.5240 c3         1 BQW       0.427000
     11 NAC         -1.9900    -1.1860     0.1090 n2         1 BQW      -0.768100
     12 NAD          0.0010    -2.3730     0.2010 nz         1 BQW      -0.810600
     13 NAH          5.2180     2.8340    -1.2620 n7         1 BQW      -0.691200
     14 NAI          3.2920     1.4450    -0.8340 ns         1 BQW      -0.567900
     15 SAK          3.6540     2.4250    -3.3430 ss         1 BQW      -0.389200
     16 H1          -0.5000     0.8660    -0.0410 hn         1 BQW       0.531800
     17 H2           1.8270    -0.8840    -0.5110 h1         1 BQW       0.040700
     18 H3           2.7220     0.7550     1.6580 hc         1 BQW       0.068033
     19 H4           2.3630    -0.8990     0.9790 hc         1 BQW       0.068033
     20 H5           1.2120    -0.1710     2.1910 hc         1 BQW       0.068033
     21 H6           8.4080     4.0080    -4.0290 hc         1 BQW       0.068700
     22 H7           9.4010     3.6390    -2.6120 hc         1 BQW       0.068700
     23 H8           8.5550     2.3380    -3.4620 hc         1 BQW       0.068700
     24 H10         -2.4910    -2.0490     0.1850 hn         1 BQW       0.441400
     25 H11         -0.6480    -3.1280     0.3050 hn         1 BQW       0.466800
     26 H12          0.6080    -2.3440     0.9960 hn         1 BQW       0.466800
     27 H13          3.9420     0.7900    -0.4470 hn         1 BQW       0.319500
     28 H14          5.7330     2.7400    -4.6030 h1         1 BQW       0.100200
     29 H15          6.3800     1.6740    -2.5550 h1         1 BQW       0.058700
     30 H16          3.2220     3.5160    -1.2120 h3         1 BQW       0.143700
     31 H17          5.5600     1.8980    -1.3470 hn         1 BQW       0.335800
     32 OAE          7.3200     4.4240    -1.4050 o          1 BQW      -0.465100
     33 CAA          8.5010     3.3760    -3.1540 c3         1 BQW      -0.189100
     34 HAD3         0.5440    -2.5130    -0.6280 hn         1 BQW       0.466800
     35 H9           5.2420     4.2450    -3.7580 h1         1 BQW       0.100200
@<TRIPOS>BOND
     1    33     8 1
     2     6    15 1
     3     6     9 1
     4    15    10 1
     5     8     9 1
     6     8    32 2
     7     9    13 1
     8    13    10 1
     9    10    14 1
    10     4     3 2
    11    14     3 1
    12     5     2 1
    13     3     2 1
    14     2     1 1
    15     1     7 1
    16     7    11 2
    17     7    12 1
    18     1    16 1
    19     2    17 1
    20     5    18 1
    21     5    19 1
    22     5    20 1
    23    33    21 1
    24    33    22 1
    25    33    23 1
    26     6    35 1
    27    11    24 1
    28    12    25 1
    29    12    26 1
    30    14    27 1
    31     6    28 1
    32     9    29 1
    33    10    30 1
    34    13    31 1
    35    34    12 1
@<TRIPOS>SUBSTRUCTURE
     1 BQW         1 TEMP              0 ****  ****    0 ROOT
