@<TRIPOS>MOLECULE
molecule
   38    39     1     0     0
SMALL
bcc


@<TRIPOS>ATOM
      1 C10          0.0000     0.0000     0.0000 ca         1 BQY      -0.127000
      2 C15          4.0820     0.1010     4.9060 c3         1 BQY       0.127100
      3 C17          5.6100     0.0330     4.8210 c3         1 BQY       0.130100
      4 C03          5.3530    -1.3420     2.7550 c3         1 BQY       0.154100
      5 O04          3.9350    -1.2430     2.9030 os         1 BQY      -0.412600
      6 C05          3.4950    -0.0210     3.4980 c3         1 BQY       0.335900
      7 O06          2.0680    -0.0140     3.5740 os         1 BQY      -0.291900
      8 C07          1.3860    -0.0100     2.3970 ca         1 BQY       0.116100
      9 C08          2.0770     0.0000     1.1960 ca         1 BQY      -0.162000
     10 C09          1.3820     0.0000     0.0000 ca         1 BQY      -0.131000
     11 C11         -0.6950     0.0010     1.1960 ca         1 BQY      -0.194000
     12 C12         -0.0050    -0.0040     2.3970 ca         1 BQY       0.117100
     13 O13         -0.6870    -0.0130     3.5740 os         1 BQY      -0.316900
     14 C14         -2.1140    -0.0060     3.4960 c3         1 BQY       0.128700
     15 O18          6.1640     0.0740     6.1390 oh         1 BQY      -0.588800
     16 C19          6.0140    -1.2740     4.1340 c3         1 BQY       0.098100
     17 O20          5.5850    -2.3840     4.9250 oh         1 BQY      -0.576800
     18 H101        -0.5400     0.0020    -0.9390 ha         1 BQY       0.128000
     19 H151         3.7190    -0.7150     5.5200 h1         1 BQY       0.088700
     20 H171         5.9760     0.8730     4.2430 h1         1 BQY       0.047700
     21 H011         5.5010    -3.4520     0.3020 ho         1 BQY       0.404000
     22 H031         5.7090    -0.5200     2.1450 h1         1 BQY       0.048700
     23 H051         3.8320     0.8140     2.8950 h2         1 BQY       0.041700
     24 H081         3.1600     0.0000     1.1930 ha         1 BQY       0.150000
     25 H091         1.9230     0.0030    -0.9390 ha         1 BQY       0.131000
     26 H111        -1.7780     0.0030     1.1930 ha         1 BQY       0.137000
     27 H141        -2.5290    -0.0100     4.4970 h1         1 BQY       0.039033
     28 H142        -2.4420     0.8830     2.9720 h1         1 BQY       0.039033
     29 H143        -2.4510    -0.8860     2.9620 h1         1 BQY       0.039033
     30 H181         6.8510     0.7180     6.1720 ho         1 BQY       0.406000
     31 H191         7.0910    -1.3010     4.0190 h1         1 BQY       0.040700
     32 H201         6.3370    -2.8270     5.2800 ho         1 BQY       0.405000
     33 O16          3.6910     1.3490     5.4820 oh         1 BQY      -0.598800
     34 C02          5.7050    -2.6720     2.0850 c3         1 BQY       0.150400
     35 H021         5.2720    -3.4870     2.6520 h1         1 BQY       0.037700
     36 O01          5.1830    -2.6880     0.7550 oh         1 BQY      -0.600800
     37 H022         6.7810    -2.7860     2.0520 h1         1 BQY       0.037700
     38 H161         3.1290     1.1920     6.2230 ho         1 BQY       0.420000
@<TRIPOS>BOND
     1    34    36 1
     2    34     4 1
     3    16     4 1
     4    16    17 1
     5    16     3 1
     6     4     5 1
     7    15     3 1
     8     3     2 1
     9     5     6 1
    10     2     6 1
    11     2    33 1
    12     6     7 1
    13     9    10 ar
    14     9     8 ar
    15     7     8 1
    16    10     1 ar
    17     8    12 ar
    18     1    11 ar
    19    12    11 ar
    20    12    13 1
    21    13    14 1
    22     1    18 1
    23     2    19 1
    24     3    20 1
    25    36    21 1
    26    34    35 1
    27    34    37 1
    28     4    22 1
    29     6    23 1
    30     9    24 1
    31    10    25 1
    32    11    26 1
    33    14    27 1
    34    14    28 1
    35    14    29 1
    36    33    38 1
    37    15    30 1
    38    16    31 1
    39    17    32 1
@<TRIPOS>SUBSTRUCTURE
     1 BQY         1 TEMP              0 ****  ****    0 ROOT
