@<TRIPOS>MOLECULE
molecule
   45    46     1     0     0
SMALL
bcc


@<TRIPOS>ATOM
      1 C4           0.0000     0.0000     0.0000 c3         1 BQZ       0.099100
      2 C5           1.5310     0.0000     0.0000 c3         1 BQZ       0.141100
      3 C6           2.0410     1.2490    -0.7210 c3         1 BQZ       0.151400
      4 C11          5.5050    -3.4410     0.3830 c3         1 BQZ       0.091100
      5 C7           3.5030    -2.4960     1.5400 c3         1 BQZ       0.147100
      6 C8           3.8620    -3.2800     2.8040 c3         1 BQZ       0.134600
      7 C9           5.3790    -3.4580     2.8790 c3         1 BQZ       0.091100
      8 C10          5.8640    -4.2260     1.6470 c3         1 BQZ       0.125100
      9 C12          3.9870    -3.2630     0.3080 c3         1 BQZ       0.134600
     10 C3          -0.5020    -1.2220     0.7750 c3         1 BQZ       0.122100
     11 C1           1.6070    -1.1430     2.1070 c3         1 BQZ       0.324900
     12 C2           0.0790    -1.1890     2.1920 c3         1 BQZ       0.135100
     13 O1           2.0850    -2.3290     1.4700 os         1 BQZ      -0.408600
     14 O2          -0.3260    -2.3620     2.9010 oh         1 BQZ      -0.590800
     15 O3          -1.9300    -1.1910     0.8430 oh         1 BQZ      -0.600800
     16 O4          -0.4780     1.1920     0.6250 oh         1 BQZ      -0.588800
     17 O5           2.0060     0.0000     1.3480 os         1 BQZ      -0.412600
     18 O6           3.4650     1.1920    -0.8230 oh         1 BQZ      -0.597800
     19 O8           3.2330    -4.5620     2.7640 oh         1 BQZ      -0.591800
     20 O9           5.7160    -4.1900     4.0590 oh         1 BQZ      -0.585800
     21 O10          7.2810    -4.3930     1.7170 oh         1 BQZ      -0.582800
     22 O11          5.9570    -4.1590    -0.7670 oh         1 BQZ      -0.585800
     23 O12          3.6510    -2.5310    -0.8720 oh         1 BQZ      -0.591800
     24 H1          -0.3600    -0.0480    -1.0210 h1         1 BQZ       0.040700
     25 H2           1.8900    -0.8870    -0.5070 h1         1 BQZ       0.088700
     26 H3           1.7540     2.1320    -0.1610 h1         1 BQZ       0.032200
     27 H4           1.6090     1.2950    -1.7130 h1         1 BQZ       0.032200
     28 H5           5.9800    -2.4680     0.4170 h1         1 BQZ       0.036200
     29 H6           3.9840    -1.5260     1.5700 h1         1 BQZ       0.069700
     30 H7           3.5210    -2.7330     3.6750 h1         1 BQZ       0.060200
     31 H8           5.8540    -2.4840     2.9050 h1         1 BQZ       0.036200
     32 H9           5.3830    -5.1960     1.6170 h1         1 BQZ       0.123700
     33 H10          3.5120    -4.2370     0.2820 h1         1 BQZ       0.060200
     34 H11         -0.1780    -2.1250     0.2730 h1         1 BQZ       0.069700
     35 H12          2.0200    -1.0730     3.1060 h2         1 BQZ       0.074700
     36 H13         -0.2800    -0.3070     2.7080 h1         1 BQZ       0.078700
     37 H14         -0.8980    -2.1190     3.6100 ho         1 BQZ       0.407000
     38 H15         -2.2860    -1.8510     0.2720 ho         1 BQZ       0.405000
     39 H16         -1.1000     1.6160     0.0580 ho         1 BQZ       0.404000
     40 H17          3.7770     1.9450    -1.2970 ho         1 BQZ       0.399000
     41 H18          2.9170    -4.7880     3.6230 ho         1 BQZ       0.413000
     42 H19          6.2430    -3.6370     4.6120 ho         1 BQZ       0.405500
     43 H20          7.6830    -3.5700     1.9420 ho         1 BQZ       0.388000
     44 H21          6.6910    -3.7050    -1.1460 ho         1 BQZ       0.405500
     45 H22          3.5650    -3.1230    -1.6010 ho         1 BQZ       0.413000
@<TRIPOS>BOND
     1    18     3 1
     2     3     2 1
     3    17     2 1
     4    17    11 1
     5     2     1 1
     6    16     1 1
     7    23     9 1
     8     1    10 1
     9     4    22 1
    10     4     9 1
    11     4     8 1
    12    21     8 1
    13    11    13 1
    14    11    12 1
    15     5     9 1
    16     5    13 1
    17     5     6 1
    18     7     8 1
    19     7    20 1
    20     7     6 1
    21     6    19 1
    22    12    10 1
    23    12    14 1
    24    10    15 1
    25     1    24 1
    26     2    25 1
    27     3    26 1
    28     3    27 1
    29     4    28 1
    30     5    29 1
    31     6    30 1
    32     7    31 1
    33     8    32 1
    34     9    33 1
    35    10    34 1
    36    11    35 1
    37    12    36 1
    38    14    37 1
    39    15    38 1
    40    16    39 1
    41    18    40 1
    42    19    41 1
    43    20    42 1
    44    21    43 1
    45    22    44 1
    46    23    45 1
@<TRIPOS>SUBSTRUCTURE
     1 BQZ         1 TEMP              0 ****  ****    0 ROOT
