@<TRIPOS>MOLECULE
molecule
   32    34     1     0     0
SMALL
bcc


@<TRIPOS>ATOM
      1 C            0.0000     0.0000     0.0000 c          1 BR0       0.895600
      2 N            1.9970    -1.2010    -0.6890 nu         1 BR0      -0.643600
      3 OXT         -0.6710     1.1460     0.1980 o          1 BR0      -0.844300
      4 CA           1.5070     0.0000     0.0000 c3         1 BR0       0.063500
      5 CB           2.0150     0.0000     1.4350 c3         1 BR0      -0.048700
      6 CG           3.5500    -0.0230     1.4800 c3         1 BR0      -0.004200
      7 OAA          3.7850    -2.8620    -4.0600 o          1 BR0      -0.823300
      8 OAC          5.8230     0.4910     2.1570 o          1 BR0      -0.258500
      9 OAD          1.9770    -2.3580    -2.8740 o          1 BR0      -0.823300
     10 OAF          7.5700     0.0370     1.0630 o          1 BR0      -0.258500
     11 CAG          5.3950    -1.6980    -2.0190 ca         1 BR0      -0.084000
     12 CAH          6.1460    -1.1300    -1.0140 ca         1 BR0      -0.172000
     13 CAI          2.8510    -1.6370     3.0020 c2         1 BR0      -0.199200
     14 CAK          1.6610    -1.3400     2.1180 c3         1 BR0      -0.058200
     15 CAM          3.1880    -2.3340    -2.9730 c          1 BR0       0.884200
     16 CAO          4.0030    -1.7270    -1.9060 ca         1 BR0      -0.137600
     17 CAP          5.5300    -0.5920     0.1020 ca         1 BR0      -0.141200
     18 CAQ          3.3820    -1.1750    -0.7710 ca         1 BR0       0.152600
     19 NAT          6.3560     0.0140     1.1700 no         1 BR0       0.300200
     20 CD1          3.8840    -0.9160     2.6560 c2         1 BR0      -0.166200
     21 CD2          4.1500    -0.6120     0.2340 ca         1 BR0      -0.082300
     22 O           -0.6040    -1.0310    -0.1740 o          1 BR0      -0.844300
     23 HN           1.6080    -1.2390    -1.6100 hn         1 BR0       0.461800
     24 HA           1.8740     0.8820    -0.5110 h1         1 BR0       0.028700
     25 HB           1.6190     0.8400     1.9930 hc         1 BR0       0.064700
     26 HG           3.9360     0.9760     1.6470 hc         1 BR0       0.064700
     27 HAG          5.8700    -2.0060    -2.9420 ha         1 BR0       0.154000
     28 HAH          7.2230    -1.0770    -1.1120 ha         1 BR0       0.126000
     29 HAI          2.9940    -2.6340     3.4000 ha         1 BR0       0.115000
     30 HAK          0.7750    -1.2160     2.7280 hc         1 BR0       0.073700
     31 HAKA         1.5590    -2.1160     1.3700 hc         1 BR0       0.073700
     32 HD1          4.5870    -0.5810     3.4090 ha         1 BR0       0.134000
@<TRIPOS>BOND
     1     1     3 1
     2     4     1 1
     3     4     2 1
     4     4     5 1
     5     5     6 1
     6     5    14 1
     7     6    20 1
     8     9    15 1
     9    10    19 1
    10    11    12 ar
    11    11    16 ar
    12    12    17 ar
    13    14    13 1
    14    15     7 1
    15    15    16 1
    16    16    18 ar
    17    17    19 1
    18    17    21 ar
    19    18     2 1
    20    18    21 ar
    21    19     8 1
    22    20    13 2
    23    21     6 1
    24    22     1 1
    25     2    23 1
    26     4    24 1
    27     5    25 1
    28     6    26 1
    29    11    27 1
    30    12    28 1
    31    13    29 1
    32    14    30 1
    33    14    31 1
    34    20    32 1
@<TRIPOS>SUBSTRUCTURE
     1 BR0         1 TEMP              0 ****  ****    0 ROOT
