@<TRIPOS>MOLECULE
BR1
   52    54     1     0     0
SMALL
bcc


@<TRIPOS>ATOM
      1 C18         0.4030   -0.2660    0.0790 ca        1 BR1     -0.228300
      2 C19         1.4200    0.6010   -0.3150 ca        1 BR1     -0.075000
      3 C20         1.6280    1.7840    0.4030 ca        1 BR1     -0.202600
      4 C21         2.6980    2.7310    0.0400 c3        1 BR1      0.037300
      5 C22         0.7800    2.0400    1.5060 ca        1 BR1      0.418200
      6 N2         -0.2030    1.2220    1.9050 nb        1 BR1     -0.640000
      7 C17        -0.3950    0.0740    1.1980 ca        1 BR1      0.386300
      8 C16        -1.4420   -0.8520    1.5840 cc        1 BR1      0.100400
      9 O2         -2.3420   -0.4980    2.5980 os        1 BR1     -0.356800
     10 C15        -1.7960   -2.1280    1.1420 cd        1 BR1      0.256900
     11 N1         -2.9050   -2.5780    1.8630 nd        1 BR1     -0.661000
     12 C14        -3.2100   -1.5970    2.7160 cc        1 BR1      0.460700
     13 C1         -4.2660   -1.4620    3.7750 c3        1 BR1      0.131800
     14 O1         -4.7320   -0.1260    3.8420 oh        1 BR1     -0.584800
     15 C2         -5.4700   -2.3530    3.4820 c3        1 BR1     -0.072400
     16 C3         -6.4260   -2.3600    4.6560 c3        1 BR1     -0.080400
     17 C4         -7.6440   -3.2080    4.3570 c3        1 BR1     -0.078400
     18 C5         -8.5990   -3.2260    5.5310 c3        1 BR1     -0.079400
     19 C6         -9.8190   -4.0710    5.2310 c3        1 BR1     -0.076400
     20 C7        -10.7730   -4.0880    6.4100 c3        1 BR1     -0.037100
     21 C8        -11.9950   -4.8870    6.1190 ca        1 BR1     -0.077300
     22 C9        -12.9740   -4.3850    5.2530 ca        1 BR1     -0.128000
     23 C10       -14.1230   -5.1250    4.9850 ca        1 BR1     -0.128500
     24 C11       -14.3060   -6.3740    5.5780 ca        1 BR1     -0.133000
     25 C12       -13.3350   -6.8800    6.4420 ca        1 BR1     -0.128500
     26 C13       -12.1840   -6.1410    6.7120 ca        1 BR1     -0.128000
     27 H1          0.2160   -1.1980   -0.4710 ha        1 BR1      0.150000
     28 H2          2.0500    0.3580   -1.1840 ha        1 BR1      0.148000
     29 H3          3.5670    2.2010   -0.4180 h1        1 BR1      0.083700
     30 H4          3.0460    3.3080    0.9300 h1        1 BR1      0.083700
     31 H6          0.9000    2.9630    2.1040 h4        1 BR1      0.032100
     32 H7         -1.3390   -2.7470    0.3690 h4        1 BR1      0.054100
     33 H8         -3.7890   -1.7500    4.7580 h1        1 BR1      0.059700
     34 H9         -3.9690    0.4430    4.0110 ho        1 BR1      0.420000
     35 H10        -5.1110   -3.3930    3.2720 hc        1 BR1      0.067200
     36 H11        -5.9930   -1.9720    2.5670 hc        1 BR1      0.067200
     37 H12        -6.7400   -1.3060    4.8830 hc        1 BR1      0.047700
     38 H13        -5.9050   -2.7570    5.5670 hc        1 BR1      0.047700
     39 H14        -7.3240   -4.2560    4.1150 hc        1 BR1      0.042200
     40 H15        -8.1690   -2.8050    3.4510 hc        1 BR1      0.042200
     41 H16        -8.9160   -2.1780    5.7740 hc        1 BR1      0.040200
     42 H17        -8.0740   -3.6310    6.4360 hc        1 BR1      0.040200
     43 H18       -10.3480   -3.6650    4.3280 hc        1 BR1      0.044700
     44 H19        -9.5020   -5.1190    4.9870 hc        1 BR1      0.044700
     45 H20       -11.0710   -3.0350    6.6620 hc        1 BR1      0.047200
     46 H21       -10.2440   -4.5060    7.3080 hc        1 BR1      0.047200
     47 H22       -12.8310   -3.3990    4.7850 ha        1 BR1      0.130500
     48 H23       -14.8880   -4.7230    4.3040 ha        1 BR1      0.130000
     49 H24       -15.2130   -6.9580    5.3660 ha        1 BR1      0.130000
     50 H25       -13.4760   -7.8640    6.9120 ha        1 BR1      0.130000
     51 H26       -11.4220   -6.5440    7.3950 ha        1 BR1      0.130500
     52 BR1         2.1220    4.0400   -1.2590 br        1 BR1     -0.159400
@<TRIPOS>BOND
     1    1    2 ar
     2    1    7 ar
     3    1   27 1
     4    2    3 ar
     5    2   28 1
     6    3    4 1
     7    3    5 ar
     8    4   29 1
     9    4   30 1
    10    4   52 1
    11    5    6 ar
    12    5   31 1
    13    6    7 ar
    14    7    8 1
    15    8    9 1
    16    8   10 2
    17    9   12 1
    18   10   11 1
    19   10   32 1
    20   11   12 2
    21   12   13 1
    22   13   14 1
    23   13   15 1
    24   13   33 1
    25   14   34 1
    26   15   16 1
    27   15   35 1
    28   15   36 1
    29   16   17 1
    30   16   37 1
    31   16   38 1
    32   17   18 1
    33   17   39 1
    34   17   40 1
    35   18   19 1
    36   18   41 1
    37   18   42 1
    38   19   20 1
    39   19   43 1
    40   19   44 1
    41   20   21 1
    42   20   45 1
    43   20   46 1
    44   21   22 ar
    45   21   26 ar
    46   22   23 ar
    47   22   47 1
    48   23   24 ar
    49   23   48 1
    50   24   25 ar
    51   24   49 1
    52   25   26 ar
    53   25   50 1
    54   26   51 1
@<TRIPOS>SUBSTRUCTURE
     1 BR1         1 TEMP              0 ****  ****    0 ROOT
