@<TRIPOS>MOLECULE
molecule
   47    50     1     0     0
SMALL
bcc


@<TRIPOS>ATOM
      1 C1           0.0000     0.0000     0.0000 c          1 BR2       0.684700
      2 C2           1.4750     0.0000     0.0000 ca         1 BR2      -0.205600
      3 O3          -0.6090    -1.0520     0.0110 o          1 BR2      -0.574100
      4 C4           2.1780     0.0000     1.2080 ca         1 BR2       0.162900
      5 C5           3.5670    -0.0000     1.1980 ca         1 BR2       0.101600
      6 C6           4.2530    -0.0020    -0.0090 ca         1 BR2      -0.122000
      7 C7           3.5600    -0.0030    -1.2060 ca         1 BR2      -0.157000
      8 C8           2.1790    -0.0070    -1.2100 ca         1 BR2       0.174900
      9 F9           1.5060    -0.0140    -2.3820 f          1 BR2      -0.120900
     10 F10          1.5080     0.0020     2.3810 f          1 BR2      -0.121900
     11 N11          4.2750     0.0010     2.4050 nu         1 BR2      -0.761500
     12 N12         -0.6730     1.1680    -0.0060 ns         1 BR2      -0.567900
     13 C13         -2.1380     1.1690    -0.0060 c3         1 BR2       0.022600
     14 C14         -2.6010     2.3860     0.7720 c2         1 BR2      -0.018200
     15 C15         -3.3950     3.2620     0.1250 cc         1 BR2      -0.326600
     16 C16         -3.7870     3.0300    -1.2830 cc         1 BR2       0.498300
     17 N17         -3.3630     1.9350    -1.9630 ne         1 BR2      -0.610700
     18 C18         -2.6010     1.0360    -1.4380 c2         1 BR2       0.456200
     19 C19         -4.0590     4.5300     0.4600 cc         1 BR2       0.593600
     20 N20         -4.6980     4.8860    -0.6360 nd         1 BR2      -0.415000
     21 N21         -4.5480     4.0570    -1.6000 nd         1 BR2      -0.244000
     22 O22         -4.0220     5.1930     1.6410 os         1 BR2      -0.414100
     23 C23         -4.7560     6.4170     1.7230 c3         1 BR2       0.130700
     24 S24          5.7010     0.8340     2.5280 sy         1 BR2       1.425200
     25 C25          5.3450     2.5290     2.2030 ca         1 BR2      -0.317500
     26 C26          5.4050     3.0120     0.9090 ca         1 BR2      -0.026000
     27 C27          5.1250     4.3410     0.6550 ca         1 BR2      -0.149000
     28 C28          4.7860     5.1870     1.6940 ca         1 BR2      -0.069000
     29 C29          4.7240     4.7040     2.9860 ca         1 BR2      -0.149000
     30 C30          4.9980     3.3730     3.2410 ca         1 BR2      -0.026000
     31 O31          6.0920     0.7610     3.8920 o          1 BR2      -0.627800
     32 O32          6.5220     0.3840     1.4590 o          1 BR2      -0.627800
     33 H6           5.3360    -0.0000    -0.0130 ha         1 BR2       0.202000
     34 H7           4.1020    -0.0060    -2.1430 ha         1 BR2       0.164000
     35 HN11         3.9370    -0.5300     3.1840 hn         1 BR2       0.475800
     36 HN12        -0.1720     2.0340     0.0130 hn         1 BR2       0.330500
     37 H14         -2.5680     2.3820     1.8540 ha         1 BR2       0.163000
     38 H18         -2.2970     0.1780    -2.0250 h4         1 BR2       0.068800
     39 H23         -4.6420     6.8400     2.7130 h1         1 BR2       0.055367
     40 H23A        -5.8040     6.2230     1.5310 h1         1 BR2       0.055367
     41 H23B        -4.3760     7.1150     0.9860 h1         1 BR2       0.055367
     42 H26          5.6710     2.3480     0.0950 ha         1 BR2       0.150000
     43 H27          5.1730     4.7200    -0.3590 ha         1 BR2       0.140500
     44 H28          4.5690     6.2300     1.4940 ha         1 BR2       0.137000
     45 H29          4.4550     5.3670     3.8000 ha         1 BR2       0.140500
     46 H30          4.9500     2.9950     4.2550 ha         1 BR2       0.150000
     47 H13         -2.4760     0.2910     0.5300 h1         1 BR2       0.114700
@<TRIPOS>BOND
     1     3     1 2
     2     2     1 1
     3     1    12 1
     4     4     2 ar
     5     2     8 ar
     6    10     4 1
     7     5     4 ar
     8    11     5 1
     9     5     6 ar
    10     6     7 ar
    11     6    33 1
    12     7     8 ar
    13     7    34 1
    14     8     9 1
    15    24    11 1
    16    11    35 1
    17    12    13 1
    18    12    36 1
    19    13    18 1
    20    13    14 1
    21    14    15 2
    22    14    37 1
    23    15    16 1
    24    15    19 1
    25    17    16 1
    26    16    21 2
    27    18    17 2
    28    18    38 1
    29    19    22 1
    30    19    20 2
    31    21    20 1
    32    22    23 1
    33    23    39 1
    34    23    40 1
    35    23    41 1
    36    32    24 2
    37    25    24 1
    38    24    31 2
    39    26    25 ar
    40    25    30 ar
    41    27    26 ar
    42    26    42 1
    43    27    28 ar
    44    27    43 1
    45    28    29 ar
    46    28    44 1
    47    29    30 ar
    48    29    45 1
    49    30    46 1
    50    13    47 1
@<TRIPOS>SUBSTRUCTURE
     1 BR2         1 TEMP              0 ****  ****    0 ROOT
