@<TRIPOS>MOLECULE
molecule
   29    30     1     0     0
SMALL
bcc


@<TRIPOS>ATOM
      1 CA1          0.0000     0.0000     0.0000 ca         1 BR3      -0.156000
      2 CB2          1.3970     0.0000     0.0000 ca         1 BR3       0.160100
      3 O            2.0020     0.0000     1.2310 os         1 BR3      -0.313900
      4 CZ2          3.3990    -0.3360     1.2210 c3         1 BR3       0.163100
      5 CA2          3.9500    -0.0130     2.6040 c3         1 BR3      -0.278600
      6 P            3.1020    -0.9290     3.9040 p5         1 BR3       1.092600
      7 OP1          3.2530    -2.4030     3.5430 o          1 BR3      -0.834500
      8 OP2          3.7040    -0.4440     5.2180 o          1 BR3      -0.834500
      9 CZ3          4.1500     0.4410     0.1420 c3         1 BR3      -0.111400
     10 CE3          3.6050     0.0500    -1.2250 c3         1 BR3      -0.032100
     11 CG2          2.1030     0.0350    -1.2090 ca         1 BR3      -0.152300
     12 CD           1.3920     0.0290    -2.4160 ca         1 BR3      -0.102000
     13 CG1         -0.0030     0.0160    -2.4130 ca         1 BR3      -0.139300
     14 CB1         -0.6990     0.0060    -1.2060 ca         1 BR3      -0.108000
     15 CH2         -0.7510     0.0180    -3.7040 c3         1 BR3      -0.035800
     16 HA1         -0.5410    -0.0080     0.9390 ha         1 BR3       0.149000
     17 HZ2          3.5050    -1.3970     1.0300 h1         1 BR3       0.073700
     18 HA21         5.0040    -0.2610     2.6290 hc         1 BR3       0.064700
     19 HA22         3.8350     1.0480     2.7900 hc         1 BR3       0.064700
     20 HZ31         3.9850     1.5010     0.2940 hc         1 BR3       0.051200
     21 HZ32         5.2000     0.1790     0.1890 hc         1 BR3       0.051200
     22 HE31         3.9360     0.7820    -1.9520 hc         1 BR3       0.044200
     23 HE32         3.9580    -0.9460    -1.4650 hc         1 BR3       0.044200
     24 HD           1.9290     0.0370    -3.3570 ha         1 BR3       0.119000
     25 HB1         -1.7820    -0.0040    -1.2050 ha         1 BR3       0.121000
     26 HH21        -0.6710     0.9940    -4.1670 hc         1 BR3       0.031700
     27 HH22        -1.7940    -0.2090    -3.5170 hc         1 BR3       0.031700
     28 HH23        -0.3320    -0.7310    -4.3650 hc         1 BR3       0.031700
     29 HP1          1.7330    -0.6120     3.9010 hp         1 BR3      -0.195400
@<TRIPOS>BOND
     1     1     2 ar
     2     1    14 ar
     3     1    16 1
     4     2     3 1
     5     2    11 ar
     6     3     4 1
     7     4     5 1
     8     4     9 1
     9     4    17 1
    10     5     6 1
    11     5    18 1
    12     5    19 1
    13     6     7 1
    14     6     8 1
    15     9    10 1
    16     9    20 1
    17     9    21 1
    18    10    11 1
    19    10    22 1
    20    10    23 1
    21    11    12 ar
    22    12    13 ar
    23    12    24 1
    24    13    14 ar
    25    13    15 1
    26    14    25 1
    27    15    26 1
    28    15    27 1
    29    15    28 1
    30    29     6 1
@<TRIPOS>SUBSTRUCTURE
     1 BR3         1 TEMP              0 ****  ****    0 ROOT
