@<TRIPOS>MOLECULE
BR3
   29    30     1     0     0
SMALL
bcc


@<TRIPOS>ATOM
      1 CA1        -0.1960    0.4480   -0.1600 ca        1 BR3     -0.173000
      2 CB2         1.1810    0.1850   -0.0140 ca        1 BR3      0.158100
      3 O           1.6730    0.2680    1.2610 os        1 BR3     -0.335900
      4 CZ2         3.0100   -0.2720    1.4700 c3        1 BR3      0.188100
      5 CA2         3.4420    0.2180    2.8240 c3        1 BR3     -0.333600
      6 P           4.1820   -1.0540    3.7080 p5        1 BR3      1.261600
      7 OP1         5.1130   -1.7750    2.8020 o         1 BR3     -0.878500
      8 OP2         4.6250   -0.5270    5.0190 o         1 BR3     -0.878500
      9 CZ3         3.9380    0.1440    0.3370 c3        1 BR3     -0.108400
     10 CE3         3.4220   -0.3790   -0.9880 c3        1 BR3     -0.030100
     11 CG2         1.9700   -0.1090   -1.1430 ca        1 BR3     -0.148300
     12 CD          1.3650   -0.1450   -2.4010 ca        1 BR3     -0.097000
     13 CG1         0.0000    0.1120   -2.5540 ca        1 BR3     -0.140300
     14 CB1        -0.7710    0.4110   -1.4230 ca        1 BR3     -0.108000
     15 CH2        -0.6260    0.0850   -3.8950 c3        1 BR3     -0.034800
     16 HA1        -0.7930    0.6790    0.7320 ha        1 BR3      0.141000
     17 HZ2         2.9070   -1.3960    1.4800 h1        1 BR3      0.067700
     18 HA21        2.5590    0.6090    3.3870 hc        1 BR3      0.075200
     19 HA22        4.1550    1.0700    2.7250 hc        1 BR3      0.075200
     20 HZ31        4.0130    1.2610    0.3070 hc        1 BR3      0.068200
     21 HZ32        4.9610   -0.2750    0.5370 hc        1 BR3      0.068200
     22 HE31        3.9930    0.0950   -1.8290 hc        1 BR3      0.046700
     23 HE32        3.5980   -1.4880   -1.0470 hc        1 BR3      0.046700
     24 HD          1.9790   -0.3780   -3.2840 ha        1 BR3      0.120000
     25 HB1        -1.8450    0.6140   -1.5370 ha        1 BR3      0.117000
     26 HH21       -0.7080    1.1230   -4.3040 hc        1 BR3      0.030033
     27 HH22       -1.6550   -0.3510   -3.8450 hc        1 BR3      0.030033
     28 HH23       -0.0210   -0.5240   -4.6100 hc        1 BR3      0.030033
     29 HP1         3.0960   -1.8050    3.8810 hp        1 BR3     -0.256400
@<TRIPOS>BOND
     1    1    2 ar  
     2    1   14 ar  
     3    1   16 1   
     4    2    3 1   
     5    2   11 ar  
     6    3    4 1   
     7    4    5 1   
     8    4    9 1   
     9    4   17 1   
    10    5    6 1   
    11    5   18 1   
    12    5   19 1   
    13    6    7 1   
    14    6    8 1   
    15    6   29 1   
    16    9   10 1   
    17    9   20 1   
    18    9   21 1   
    19   10   11 1   
    20   10   22 1   
    21   10   23 1   
    22   11   12 ar  
    23   12   13 ar  
    24   12   24 1   
    25   13   14 ar  
    26   13   15 1   
    27   14   25 1   
    28   15   26 1   
    29   15   27 1   
    30   15   28 1   
@<TRIPOS>SUBSTRUCTURE
     1 BR3         1 TEMP              0 ****  ****    0 ROOT
