@<TRIPOS>MOLECULE
molecule
   61    62     1     0     0
SMALL
bcc


@<TRIPOS>ATOM
      1 C9           0.0000     0.0000     0.0000 c3         1 BR4      -0.081400
      2 C8           1.5300     0.0000     0.0000 c3         1 BR4      -0.077400
      3 C7           2.0410     0.0000     1.4430 c3         1 BR4      -0.039100
      4 C6           3.5480    -0.0010     1.4410 ca         1 BR4      -0.074300
      5 C1           4.2390     1.1940     1.4410 ca         1 BR4      -0.125500
      6 C5           4.2380    -1.1990     1.4460 ca         1 BR4      -0.125500
      7 C2           5.6210     1.1950     1.4410 ca         1 BR4      -0.128500
      8 C4           5.6210    -1.1990     1.4420 ca         1 BR4      -0.128500
      9 C3           6.3120    -0.0030     1.4420 ca         1 BR4      -0.138000
     10 C13         -4.0570     0.0020    -2.8820 c          1 BR4       0.658100
     11 O1          -4.6630     0.0030    -1.8330 o          1 BR4      -0.599100
     12 C12         -2.5510     0.0000    -2.8840 c3         1 BR4      -0.159400
     13 C11         -2.0400     0.0010    -1.4420 c3         1 BR4      -0.066400
     14 C10         -0.5100     0.0000    -1.4410 c3         1 BR4      -0.084400
     15 N1          -4.7320     0.0030    -4.0490 ns         1 BR4      -0.578900
     16 C23         -6.7060     1.4460    -4.0480 c3         1 BR4      -0.075400
     17 C14         -6.1970     0.0030    -4.0490 c3         1 BR4       0.101700
     18 C15         -6.7080    -0.7170    -5.2970 c3         1 BR4      -0.089400
     19 C16         -6.1990    -2.1600    -5.2980 c3         1 BR4      -0.042100
     20 C17         -6.7020    -2.8700    -6.5280 ca         1 BR4      -0.070300
     21 C18         -5.9550    -2.8510    -7.6900 ca         1 BR4      -0.126000
     22 C22         -7.9080    -3.5450    -6.4910 ca         1 BR4      -0.126000
     23 C19         -6.4170    -3.5030    -8.8180 ca         1 BR4      -0.129000
     24 C21         -8.3710    -4.1940    -7.6200 ca         1 BR4      -0.129000
     25 C20         -7.6250    -4.1740    -8.7830 ca         1 BR4      -0.141000
     26 C24         -6.1940     2.1670    -2.8000 c3         1 BR4      -0.179400
     27 C25         -6.6970     3.5880    -2.8000 c          1 BR4       0.889600
     28 O2          -7.3910     3.9830    -3.7060 o          1 BR4      -0.860300
     29 OT3         -6.3710     4.4150    -1.7930 o          1 BR4      -0.860300
     30 H91         -0.3610    -0.8850     0.5110 hc         1 BR4       0.045200
     31 H92         -0.3610     0.8840     0.5110 hc         1 BR4       0.045200
     32 H81          1.8910     0.8840    -0.5110 hc         1 BR4       0.042700
     33 H82          1.8910    -0.8840    -0.5110 hc         1 BR4       0.042700
     34 H71          1.6800     0.8850     1.9530 hc         1 BR4       0.049700
     35 H72          1.6800    -0.8840     1.9540 hc         1 BR4       0.049700
     36 H11          3.6970     2.1320     1.4400 ha         1 BR4       0.131000
     37 H51          3.6960    -2.1360     1.4470 ha         1 BR4       0.131000
     38 H21          6.1630     2.1330     1.4410 ha         1 BR4       0.125000
     39 H41          6.1620    -2.1380     1.4450 ha         1 BR4       0.125000
     40 H31          7.3950    -0.0040     1.4400 ha         1 BR4       0.123000
     41 H121        -2.1900     0.8840    -3.3950 hc         1 BR4       0.051700
     42 H122        -2.1910    -0.8850    -3.3940 hc         1 BR4       0.051700
     43 H111        -2.4010     0.8860    -0.9310 hc         1 BR4       0.062700
     44 H112        -2.4020    -0.8830    -0.9310 hc         1 BR4       0.062700
     45 H101        -0.1500    -0.8840    -1.9520 hc         1 BR4       0.035200
     46 H102        -0.1490     0.8850    -1.9520 hc         1 BR4       0.035200
     47 HN11        -4.2320     0.0300    -4.9150 hn         1 BR4       0.299500
     48 H231        -7.7900     1.4460    -4.0460 hc         1 BR4       0.049200
     49 H232        -6.3470     1.9560    -4.9330 hc         1 BR4       0.049200
     50 H141        -6.5580    -0.5080    -3.1640 h1         1 BR4       0.074700
     51 H151        -6.3480    -0.2060    -6.1810 hc         1 BR4       0.051200
     52 H152        -7.7910    -0.7170    -5.2950 hc         1 BR4       0.051200
     53 H161        -6.5590    -2.6710    -4.4130 hc         1 BR4       0.049200
     54 H162        -5.1150    -2.1600    -5.2980 hc         1 BR4       0.049200
     55 H181        -5.0090    -2.3250    -7.7170 ha         1 BR4       0.131000
     56 H221        -8.4920    -3.5610    -5.5790 ha         1 BR4       0.131000
     57 H191        -5.8320    -3.4870    -9.7300 ha         1 BR4       0.122500
     58 H211        -9.3170    -4.7220    -7.5920 ha         1 BR4       0.122500
     59 H201        -7.9880    -4.6840    -9.6680 ha         1 BR4       0.120000
     60 H241        -5.1110     2.1680    -2.8020 hc         1 BR4       0.039200
     61 H242        -6.5540     1.6570    -1.9150 hc         1 BR4       0.039200
@<TRIPOS>BOND
     1     1     2 1
     2     1    14 1
     3     1    30 1
     4     1    31 1
     5     2     3 1
     6     2    32 1
     7     2    33 1
     8     3     4 1
     9     3    34 1
    10     3    35 1
    11     4     5 ar
    12     4     6 ar
    13     5     7 ar
    14     5    36 1
    15     6     8 ar
    16     6    37 1
    17     7     9 ar
    18     7    38 1
    19     8     9 ar
    20     8    39 1
    21     9    40 1
    22    10    11 2
    23    10    12 1
    24    10    15 1
    25    12    13 1
    26    12    41 1
    27    12    42 1
    28    13    14 1
    29    13    43 1
    30    13    44 1
    31    14    45 1
    32    14    46 1
    33    15    17 1
    34    15    47 1
    35    16    17 1
    36    16    26 1
    37    16    48 1
    38    16    49 1
    39    17    18 1
    40    17    50 1
    41    18    19 1
    42    18    51 1
    43    18    52 1
    44    19    20 1
    45    19    53 1
    46    19    54 1
    47    20    21 ar
    48    20    22 ar
    49    21    23 ar
    50    21    55 1
    51    22    24 ar
    52    22    56 1
    53    23    25 ar
    54    23    57 1
    55    24    25 ar
    56    24    58 1
    57    25    59 1
    58    26    27 1
    59    26    60 1
    60    26    61 1
    61    27    28 1
    62    27    29 1
@<TRIPOS>SUBSTRUCTURE
     1 BR4         1 TEMP              0 ****  ****    0 ROOT
