@<TRIPOS>MOLECULE
BR5
   18    17     1     0     0
SMALL
bcc


@<TRIPOS>ATOM
      1 CA1         0.0430   -0.5430   -0.2710 c3        1 BR5     -0.093100
      2 CB2         1.4130    0.0590   -0.0560 c3        1 BR5      0.133400
      3 O           1.7960   -0.2270    1.2810 os        1 BR5     -0.439600
      4 CZ2         3.0900    0.3160    1.5990 c3        1 BR5      0.161400
      5 CA2         3.3240    0.1250    3.0680 c3        1 BR5     -0.340600
      6 P           3.9680    1.5520    3.7620 p5        1 BR5      1.265600
      7 OP1         4.6050    1.2020    5.0550 o         1 BR5     -0.882000
      8 OP2         4.7030    2.3300    2.7320 o         1 BR5     -0.882000
      9 HA11       -0.6890   -0.1040    0.4470 hc        1 BR5      0.032367
     10 HA12       -0.2970   -0.3380   -1.3130 hc        1 BR5      0.032367
     11 HA13        0.0740   -1.6470   -0.1070 hc        1 BR5      0.032367
     12 HB21        1.3890    1.1710   -0.2170 h1        1 BR5      0.014700
     13 HB22        2.1610   -0.3860   -0.7680 h1        1 BR5      0.014700
     14 HZ21        3.1190    1.4090    1.3330 h1        1 BR5      0.034700
     15 HZ22        3.8480   -0.2270    0.9670 h1        1 BR5      0.034700
     16 HA21        4.0260   -0.7240    3.2410 hc        1 BR5      0.070700
     17 HA22        2.3680   -0.1560    3.5720 hc        1 BR5      0.070700
     18 HP1         2.8120    2.1710    4.0030 hp        1 BR5     -0.260400
@<TRIPOS>BOND
     1    1    2 1   
     2    1    9 1   
     3    1   10 1   
     4    1   11 1   
     5    2    3 1   
     6    2   12 1   
     7    2   13 1   
     8    3    4 1   
     9    4    5 1   
    10    4   14 1   
    11    4   15 1   
    12    5    6 1   
    13    5   16 1   
    14    5   17 1   
    15    6    7 1   
    16    6    8 1   
    17    6   18 1   
@<TRIPOS>SUBSTRUCTURE
     1 BR5         1 TEMP              0 ****  ****    0 ROOT
