@<TRIPOS>MOLECULE
molecule
   18    17     1     0     0
SMALL
bcc


@<TRIPOS>ATOM
      1 CA1          0.0000     0.0000     0.0000 c3         1 BR5      -0.093100
      2 CB2          1.5140     0.0000     0.0000 c3         1 BR5       0.139400
      3 O            1.9770     0.0000     1.3440 os         1 BR5      -0.421600
      4 CZ2          3.3960    -0.0000     1.4070 c3         1 BR5       0.159400
      5 CA2          3.8260     0.0040     2.8600 c3         1 BR5      -0.283600
      6 P            3.2210     1.4580     3.7540 p5         1 BR5       1.103600
      7 OP1          3.6670     1.2680     5.1960 o          1 BR5      -0.840500
      8 OP2          3.7500     2.6600     2.9830 o          1 BR5      -0.840500
      9 HA11        -0.3610    -0.8770     0.5240 hc         1 BR5       0.035367
     10 HA12        -0.3610    -0.0160    -1.0210 hc         1 BR5       0.035367
     11 HA13        -0.3610     0.8920     0.4970 hc         1 BR5       0.035367
     12 HB21         1.8770     0.8850    -0.5090 h1         1 BR5       0.012200
     13 HB22         1.8770    -0.8850    -0.5090 h1         1 BR5       0.012200
     14 HZ21         3.7810    -0.8870     0.9180 h1         1 BR5       0.013700
     15 HZ22         3.7820     0.8830     0.9120 h1         1 BR5       0.013700
     16 HA21         3.4430    -0.8870     3.3410 hc         1 BR5       0.058700
     17 HA22         4.9080    -0.0100     2.9050 hc         1 BR5       0.058700
     18 HP1          1.8170     1.4950     3.7250 hp         1 BR5      -0.199400
@<TRIPOS>BOND
     1     1     2 1
     2     1     9 1
     3     1    10 1
     4     1    11 1
     5     2     3 1
     6     2    12 1
     7     2    13 1
     8     3     4 1
     9     4     5 1
    10     4    14 1
    11     4    15 1
    12     5     6 1
    13     5    16 1
    14     5    17 1
    15     6     7 1
    16     6     8 1
    17    18     6 1
@<TRIPOS>SUBSTRUCTURE
     1 BR5         1 TEMP              0 ****  ****    0 ROOT
