@<TRIPOS>MOLECULE
BR6
   31    33     1     0     0
SMALL
bcc


@<TRIPOS>ATOM
      1 Br           0.0000     0.0000     0.0000 br         1 BR6       0.052000
      2 C1           1.8910     0.0000     0.0000 ca         1 BR6      -0.077000
      3 N1           6.0300     0.0010    -0.0020 n2         1 BR6       0.101000
      4 C2           2.5810     0.0000     1.2010 ca         1 BR6      -0.089500
      5 N2          13.0960    -1.6350    -1.6490 nz         1 BR6       0.889000
      6 C3           3.9600     0.0010     1.2070 ca         1 BR6      -0.046500
      7 N3          13.0580    -0.0030     0.0010 n2         1 BR6       0.070000
      8 C4           2.5800    -0.0050    -1.2010 ca         1 BR6      -0.089500
      9 C5           3.9590    -0.0050    -1.2100 ca         1 BR6      -0.046500
     10 C6           4.6620     0.0010    -0.0010 ca         1 BR6      -0.090000
     11 C7           6.6800    -0.7960    -0.7990 c2         1 BR6      -0.322000
     12 C8           8.1530    -0.7960    -0.8000 c3         1 BR6      -0.101000
     13 C9           8.8530     0.0560     0.0610 c2         1 BR6      -0.060000
     14 C10         10.2290     0.0550     0.0590 c2         1 BR6      -0.066500
     15 C11         10.9260    -0.7950    -0.8000 c2         1 BR6      -0.116000
     16 C12         12.4070    -0.7960    -0.8000 c2         1 BR6      -0.289000
     17 C13         10.2290    -1.6470    -1.6600 c2         1 BR6      -0.066500
     18 C14          8.8530    -1.6510    -1.6570 c2         1 BR6      -0.060000
     19 H2           2.0360     0.0000     2.1370 ha         1 BR6       0.127000
     20 HN2         12.8550    -1.4240    -2.5970 hn         1 BR6       0.022333
     21 HN2A        12.8550    -2.5860    -1.4470 hn         1 BR6       0.022333
     22 H3           4.4980     0.0010     2.1480 ha         1 BR6       0.118000
     23 HN3         14.0590    -0.0020     0.0020 hn         1 BR6       0.092000
     24 H4           2.0340    -0.0090    -2.1370 ha         1 BR6       0.127000
     25 H5           4.4970    -0.0090    -2.1500 ha         1 BR6       0.118000
     26 H7           7.2920    -0.0460    -1.2880 DU         1 BR6       0.266000
     27 H9           8.3130     0.7160     0.7280 ha         1 BR6       0.141000
     28 H10         10.7710     0.7150     0.7260 ha         1 BR6       0.106500
     29 H13         10.7710    -2.3080    -2.3250 ha         1 BR6       0.106500
     30 H14          8.3120    -2.3120    -2.3240 ha         1 BR6       0.141000
     31 H23         14.0800    -1.5070    -1.5190 hn         1 BR6       0.022333
@<TRIPOS>BOND
     1     1     2 1   
     2     2     4 1   
     3     2     8 1   
     4     3    10 1   
     5     3    11 1   
     6     4     6 1   
     7     4    19 1   
     8     5    16 1   
     9     5    20 1   
    10     5    21 1   
    11     5    31 1   
    12     6    10 1   
    13     6    22 1   
    14     7    16 1   
    15     7    23 1   
    16     8     9 1   
    17     8    24 1   
    18     9    10 1   
    19     9    25 1   
    20    11    12 1   
    21    11    26 1   
    22    12    13 1   
    23    12    18 1   
    24    12    26 1   
    25    13    14 1   
    26    13    27 1   
    27    14    15 1   
    28    14    28 1   
    29    15    16 1   
    30    15    17 1   
    31    17    18 1   
    32    17    29 1   
    33    18    30 1   
@<TRIPOS>SUBSTRUCTURE
     1 BR6         1 TEMP              0 ****  ****    0 ROOT
