@<TRIPOS>MOLECULE
molecule
   31    32     1     0     0
SMALL
bcc


@<TRIPOS>ATOM
      1 Br           0.0000     0.0000     0.0000 br         1 BR6      -0.064100
      2 C1           1.8910     0.0000     0.0000 ca         1 BR6      -0.008900
      3 N1           6.0300     0.0010    -0.0020 ne         1 BR6      -0.538100
      4 C2           2.5810     0.0000     1.2010 ca         1 BR6      -0.093000
      5 N2          13.0960    -1.6350    -1.6490 nz         1 BR6      -0.742600
      6 C3           3.9600     0.0010     1.2070 ca         1 BR6      -0.119000
      7 N3          13.0580    -0.0030     0.0010 n2         1 BR6      -0.723100
      8 C4           2.5800    -0.0050    -1.2010 ca         1 BR6      -0.093000
      9 C5           3.9590    -0.0050    -1.2100 ca         1 BR6      -0.119000
     10 C6           4.6620     0.0010    -0.0010 ca         1 BR6       0.107400
     11 C7           6.6800    -0.7960    -0.7990 cf         1 BR6       0.444800
     12 C8           8.1530    -0.7960    -0.8000 ca         1 BR6      -0.072900
     13 C9           8.8530     0.0560     0.0610 ca         1 BR6      -0.081000
     14 C10         10.2290     0.0550     0.0590 ca         1 BR6      -0.104000
     15 C11         10.9260    -0.7950    -0.8000 ca         1 BR6      -0.237900
     16 C12         12.4070    -0.7960    -0.8000 ce         1 BR6       0.519800
     17 C13         10.2290    -1.6470    -1.6600 ca         1 BR6      -0.104000
     18 C14          8.8530    -1.6510    -1.6570 ca         1 BR6      -0.081000
     19 H2           2.0360     0.0000     2.1370 ha         1 BR6       0.156000
     20 HN2         14.0800    -1.5070    -1.5190 hn         1 BR6       0.473467
     21 HN2A        12.8550    -2.5860    -1.4470 hn         1 BR6       0.473467
     22 H3           4.4980     0.0010     2.1480 ha         1 BR6       0.145000
     23 HN3         12.5580     0.6080     0.6180 hn         1 BR6       0.484400
     24 H4           2.0340    -0.0090    -2.1370 ha         1 BR6       0.156000
     25 H5           4.4970    -0.0090    -2.1500 ha         1 BR6       0.145000
     26 H7           6.1390    -1.4590    -1.4630 h4         1 BR6       0.001800
     27 H9           8.3130     0.7160     0.7280 ha         1 BR6       0.173500
     28 H10         10.7710     0.7150     0.7260 ha         1 BR6       0.126000
     29 H13         10.7710    -2.3080    -2.3250 ha         1 BR6       0.126000
     30 H14          8.3120    -2.3120    -2.3240 ha         1 BR6       0.173500
     31 H23         12.8550    -1.4240    -2.5970 hn         1 BR6       0.473467
@<TRIPOS>BOND
     1     1     2 1
     2     4     2 ar
     3     4     6 ar
     4     2     8 ar
     5     6    10 ar
     6     8     9 ar
     7    10     9 ar
     8    10     3 1
     9    11     3 2
    10    11    12 1
    11    12    18 ar
    12    12    13 ar
    13    18    17 ar
    14    13    14 ar
    15    17    15 ar
    16    14    15 ar
    17    15    16 1
    18    16     5 1
    19    16     7 2
    20     4    19 1
    21     5    20 1
    22     5    21 1
    23     6    22 1
    24     7    23 1
    25     8    24 1
    26     9    25 1
    27    11    26 1
    28    13    27 1
    29    14    28 1
    30    17    29 1
    31    18    30 1
    32    31     5 1
@<TRIPOS>SUBSTRUCTURE
     1 BR6         1 TEMP              0 ****  ****    0 ROOT
