@<TRIPOS>MOLECULE
molecule
   35    37     1     0     0
SMALL
bcc


@<TRIPOS>ATOM
      1 C01          1.5300     0.0000     0.0000 c3         1 BR7      -0.083600
      2 C02          0.0000     0.0000     0.0000 c3         1 BR7      -0.053000
      3 C03         -0.5110     0.0000     1.4430 c3         1 BR7      -0.070400
      4 C04         -2.0410     0.0000     1.4430 c3         1 BR7      -0.053000
      5 C05         -2.5500    -0.0010     2.8850 c3         1 BR7      -0.083600
      6 C06         -2.5500     1.2500     0.7220 c3         1 BR7      -0.083400
      7 C07         -2.0390     1.2510    -0.7200 c3         1 BR7       0.106200
      8 N           -2.5300     2.4510    -1.4120 nz         1 BR7      -0.806600
      9 C08         -0.5100     1.2500    -0.7200 c3         1 BR7      -0.083400
     10 C09         -2.5500     0.0030    -1.4430 c3         1 BR7      -0.081400
     11 C10         -2.0400    -1.2470    -0.7230 c3         1 BR7       0.019400
     12 Br          -2.6960    -2.8520    -1.6500 br         1 BR7      -0.105400
     13 C11         -0.5100    -1.2490    -0.7220 c3         1 BR7      -0.067400
     14 C           -2.5510    -1.2490     0.7200 c3         1 BR7      -0.067400
     15 H1           1.8910     0.8840     0.5110 hc         1 BR7       0.053033
     16 H2           1.8910    -0.8850     0.5100 hc         1 BR7       0.053033
     17 H3           1.8910     0.0010    -1.0210 hc         1 BR7       0.053033
     18 H4          -0.1490    -0.8840     1.9530 hc         1 BR7       0.068200
     19 H5          -0.1490     0.8840     1.9530 hc         1 BR7       0.068200
     20 H6          -2.1890     0.8830     3.3960 hc         1 BR7       0.053033
     21 H7          -3.6340    -0.0010     2.8850 hc         1 BR7       0.053033
     22 H8          -2.1890    -0.8860     3.3950 hc         1 BR7       0.053033
     23 H9          -2.1890     2.1340     1.2340 hc         1 BR7       0.062700
     24 H10         -3.6340     1.2500     0.7220 hc         1 BR7       0.062700
     25 H12         -2.1960     3.2680    -0.9400 hn         1 BR7       0.451800
     26 H13         -2.1960     2.4510    -2.3560 hn         1 BR7       0.451800
     27 H14         -0.1480     2.1340    -0.2090 hc         1 BR7       0.062700
     28 H15         -0.1490     1.2500    -1.7420 hc         1 BR7       0.062700
     29 H16         -3.6330     0.0030    -1.4430 hc         1 BR7       0.070700
     30 H17         -2.1890     0.0040    -2.4640 hc         1 BR7       0.070700
     31 H18         -0.1490    -1.2480    -1.7440 hc         1 BR7       0.077200
     32 H19         -0.1500    -2.1340    -0.2120 hc         1 BR7       0.077200
     33 H20         -2.1900    -2.1340     1.2300 hc         1 BR7       0.077200
     34 H21         -3.6340    -1.2490     0.7200 hc         1 BR7       0.077200
     35 HN3         -3.5300     2.4500    -1.4120 hn         1 BR7       0.451800
@<TRIPOS>BOND
     1     1     2 1
     2    13     2 1
     3    13    11 1
     4     2     9 1
     5     2     3 1
     6     9     7 1
     7    12    11 1
     8    11    10 1
     9    11    14 1
    10    10     7 1
    11     7     8 1
    12     7     6 1
    13     3     4 1
    14    14     4 1
    15     4     6 1
    16     4     5 1
    17     1    15 1
    18     1    16 1
    19     1    17 1
    20     3    18 1
    21     3    19 1
    22     5    20 1
    23     5    21 1
    24     5    22 1
    25     6    23 1
    26     6    24 1
    27     8    25 1
    28     8    26 1
    29     9    27 1
    30     9    28 1
    31    10    29 1
    32    10    30 1
    33    13    31 1
    34    13    32 1
    35    14    33 1
    36    14    34 1
    37    35     8 1
@<TRIPOS>SUBSTRUCTURE
     1 BR7         1 TEMP              0 ****  ****    0 ROOT
