@<TRIPOS>MOLECULE
molecule
   13    13     1     0     0
SMALL
bcc


@<TRIPOS>ATOM
      1 N1           0.0000     0.0000     0.0000 ns         1 BR8      -0.574500
      2 C2           1.3380     0.0000     0.0000 c          1 BR8       0.815500
      3 O2           1.9010    -0.0000    -1.0770 o          1 BR8      -0.637500
      4 N3           2.1020     0.0000     1.0990 ns         1 BR8      -0.574500
      5 C4           1.5690     0.0000     2.3390 c          1 BR8       0.697500
      6 O4           2.2730    -0.0000     3.3250 o          1 BR8      -0.577500
      7 C5           0.0560     0.0000     2.4520 c3         1 BR8      -0.243400
      8 C6          -0.7140     0.0000     1.1460 c          1 BR8       0.697500
      9 O8          -1.9260     0.0000     1.1300 o          1 BR8      -0.577500
     10 H1          -0.4860    -0.0000    -0.8750 hn         1 BR8       0.368500
     11 H3           3.0980    -0.0000     0.9980 hn         1 BR8       0.368500
     12 H51C        -0.2060     0.9240     2.9530 hc         1 BR8       0.118700
     13 H52C        -0.2060    -0.9240     2.9530 hc         1 BR8       0.118700
@<TRIPOS>BOND
     1     1     2 1
     2     1     8 1
     3     2     3 2
     4     2     4 1
     5     4     5 1
     6     5     6 2
     7     5     7 1
     8     7     8 1
     9     8     9 2
    10     1    10 1
    11     4    11 1
    12     7    12 1
    13     7    13 1
@<TRIPOS>SUBSTRUCTURE
     1 BR8         1 TEMP              0 ****  ****    0 ROOT
