@<TRIPOS>MOLECULE
BR9
   15    15     1     0     0
SMALL
bcc


@<TRIPOS>ATOM
      1 C2           0.0000     0.0000     0.0000 ca         1 BR9      -0.076200
      2 C1           1.3900     0.0000     0.0000 ca         1 BR9      -0.106000
      3 N            3.4510     0.0000     1.2710 nv         1 BR9      -0.469200
      4 C            2.0510     0.0000     1.2200 ca         1 BR9      -0.092700
      5 Br          -0.9540    -0.0080    -1.6320 br         1 BR9      -0.122100
      6 C3          -0.6770     0.0010     1.2040 ca         1 BR9       0.399200
      7 N1          -0.0220     0.0070     2.3510 nb         1 BR9      -0.573000
      8 C4           1.2990     0.0010     2.3990 ca         1 BR9       0.448200
      9 N2           1.9460     0.0020     3.6320 nv         1 BR9      -0.606500
     10 H1           1.9330     0.2240    -0.9110 ha         1 BR9       0.125000
     11 H2           3.9750    -0.5380     0.6100 hn         1 BR9       0.269800
     12 H3           3.9270     0.5850     1.9290 hn         1 BR9       0.269800
     13 H4          -1.7600     0.0040     1.2070 h4         1 BR9      -0.009900
     14 H5           2.5640    -0.7470     3.8730 hn         1 BR9       0.272300
     15 H6           1.7860     0.7470     4.2810 hn         1 BR9       0.272300
@<TRIPOS>BOND
     1     1     2 ar  
     2     1     5 1   
     3     1     6 ar  
     4     2     4 ar  
     5     2    10 1   
     6     3     4 1   
     7     3    11 1   
     8     3    12 1   
     9     4     8 ar  
    10     6     7 ar  
    11     6    13 1   
    12     7     8 ar  
    13     8     9 1   
    14     9    14 1   
    15     9    15 1   
@<TRIPOS>SUBSTRUCTURE
     1 BR9         1 TEMP              0 ****  ****    0 ROOT
