@<TRIPOS>MOLECULE
molecule
   15    15     1     0     0
SMALL
bcc


@<TRIPOS>ATOM
      1 C2           0.0000     0.0000     0.0000 ca         1 BR9      -0.139200
      2 C1           1.3900     0.0000     0.0000 ca         1 BR9      -0.124000
      3 N            3.4510     0.0000     1.2710 nv         1 BR9      -0.937200
      4 C            2.0510     0.0000     1.2200 ca         1 BR9       0.047300
      5 Br          -0.9540    -0.0080    -1.6320 br         1 BR9      -0.092100
      6 C3          -0.6770     0.0010     1.2040 ca         1 BR9       0.429200
      7 N1          -0.0220     0.0070     2.3510 nb         1 BR9      -0.696000
      8 C4           1.2990     0.0010     2.3990 ca         1 BR9       0.643200
      9 N2           1.9460     0.0020     3.6320 nv         1 BR9      -1.055500
     10 H1           1.9330     0.2240    -0.9110 ha         1 BR9       0.153000
     11 H2           3.9750    -0.5380     0.6100 hn         1 BR9       0.432800
     12 H3           3.9270     0.5850     1.9290 hn         1 BR9       0.432800
     13 H4          -1.7600     0.0040     1.2070 h4         1 BR9       0.034100
     14 H5           2.5640    -0.7470     3.8730 hn         1 BR9       0.436800
     15 H6           1.7860     0.7470     4.2810 hn         1 BR9       0.436800
@<TRIPOS>BOND
     1     3     4 1
     2     4     2 ar
     3     4     8 ar
     4     9     8 1
     5     2     1 ar
     6     8     7 ar
     7     1     6 ar
     8     1     5 1
     9     7     6 ar
    10     2    10 1
    11     3    11 1
    12     3    12 1
    13     6    13 1
    14     9    14 1
    15     9    15 1
@<TRIPOS>SUBSTRUCTURE
     1 BR9         1 TEMP              0 ****  ****    0 ROOT
