@<TRIPOS>MOLECULE
molecule
   87    92     1     0     0
SMALL
bcc


@<TRIPOS>ATOM
      1 C40          0.0000     0.0000     0.0000 c3         1 BRA       0.148300
      2 C41          1.5490     0.0000     0.0000 c3         1 BRA      -0.093150
      3 C42          1.8950     0.0000     1.5060 c3         1 BRA      -0.093150
      4 C43          0.6410    -0.5550     2.2070 c3         1 BRA       0.148300
      5 N39         -0.3400    -0.8770     1.1490 n3         1 BRA      -0.719600
      6 C38         -1.7120    -0.6320     1.6110 c3         1 BRA       0.169800
      7 C37         -2.1130    -1.7130     2.6180 c3         1 BRA      -0.155900
      8 C36         -3.5200    -1.4600     3.0930 c          1 BRA       0.653600
      9 O52         -4.1430    -0.5100     2.6670 o          1 BRA      -0.586100
     10 N17         -4.0880    -2.2910     3.9900 ns         1 BRA      -0.479100
     11 C3          -5.3590    -2.0080     4.4970 ca         1 BRA       0.062600
     12 C4          -6.2980    -1.4310     3.6740 ca         1 BRA      -0.178800
     13 C2          -5.6510    -2.3240     5.8290 ca         1 BRA      -0.164500
     14 C1          -6.8710    -2.0680     6.3660 ca         1 BRA      -0.079000
     15 C6          -7.8720    -1.4740     5.5760 ca         1 BRA      -0.199300
     16 C10         -9.1470    -1.1970     6.1020 ca         1 BRA       0.230600
     17 N19         -9.4590    -1.4970     7.4110 nu         1 BRA      -0.718000
     18 C28         -8.8720    -0.7710     8.4540 ca         1 BRA       0.120600
     19 C29         -8.5340     0.5620     8.2690 ca         1 BRA      -0.133000
     20 C24         -7.9550     1.2780     9.2970 ca         1 BRA      -0.174500
     21 C25         -7.7110     0.6640    10.5190 ca         1 BRA       0.176600
     22 N15         -7.1250     1.3890    11.5620 nh         1 BRA      -0.745000
     23 C16         -6.8760     2.8240    11.4070 c3         1 BRA       0.234100
     24 C18         -6.7590     0.7120    12.8090 c3         1 BRA       0.234100
     25 C26         -8.0500    -0.6710    10.7060 ca         1 BRA      -0.174500
     26 C27         -8.6330    -1.3840     9.6780 ca         1 BRA      -0.133000
     27 C5          -7.5810    -1.1450     4.1800 ca         1 BRA       0.464600
     28 N7          -8.5080    -0.5860     3.4030 nb         1 BRA      -0.681000
     29 C8          -9.7280    -0.3060     3.8610 ca         1 BRA       0.464600
     30 C11        -10.6920     0.2830     3.0220 ca         1 BRA      -0.178800
     31 C9         -10.0940    -0.6010     5.2470 ca         1 BRA      -0.199300
     32 C14        -11.3900    -0.2940     5.6960 ca         1 BRA      -0.079000
     33 C13        -12.2840     0.2720     4.8440 ca         1 BRA      -0.164500
     34 C12        -11.9440     0.5620     3.5180 ca         1 BRA       0.062600
     35 N21        -12.8970     1.1480     2.6810 ns         1 BRA      -0.479100
     36 C44        -12.9320     0.8280     1.3730 c          1 BRA       0.653600
     37 O53        -12.2060    -0.0430     0.9420 o          1 BRA      -0.586100
     38 C45        -13.8720     1.5530     0.4450 c3         1 BRA      -0.155900
     39 C46        -13.7130     1.0030    -0.9740 c3         1 BRA       0.169800
     40 N47        -14.6300     1.7090    -1.8780 n3         1 BRA      -0.719600
     41 C48        -16.0360     1.3560    -1.5900 c3         1 BRA       0.148300
     42 C49        -16.7440     1.3900    -2.9690 c3         1 BRA      -0.093150
     43 C50        -15.6420     0.8180    -3.8990 c3         1 BRA      -0.093150
     44 C51        -14.3420     1.3790    -3.2870 c3         1 BRA       0.148300
     45 H40         -0.3810    -0.4180    -0.9240 h1         1 BRA       0.043450
     46 H40A        -0.3810     1.0020     0.1600 h1         1 BRA       0.043450
     47 H41          1.9310    -0.8940    -0.4790 hc         1 BRA       0.049700
     48 H41A         1.9310     0.8940    -0.4790 hc         1 BRA       0.049700
     49 H42          2.7460    -0.6440     1.6950 hc         1 BRA       0.049700
     50 H42A         2.0980     1.0090     1.8440 hc         1 BRA       0.049700
     51 H43          0.8950    -1.4510     2.7600 h1         1 BRA       0.043450
     52 H43A         0.2310     0.1940     2.8740 h1         1 BRA       0.043450
     53 H38         -1.7650     0.3410     2.0850 h1         1 BRA       0.052950
     54 H38A        -2.3880    -0.6590     0.7650 h1         1 BRA       0.052950
     55 H37         -2.0610    -2.6850     2.1440 hc         1 BRA       0.068450
     56 H37A        -1.4360    -1.6870     3.4640 hc         1 BRA       0.068450
     57 HN17        -3.6070    -3.1190     4.2790 hn         1 BRA       0.323500
     58 H4          -6.0990    -1.3250     2.6140 ha         1 BRA       0.179000
     59 H2          -4.8860    -2.7810     6.4450 ha         1 BRA       0.127500
     60 H1          -7.0740    -2.3210     7.4000 ha         1 BRA       0.143000
     61 HN19       -10.0830    -2.2520     7.6160 hn         1 BRA       0.450800
     62 H29         -8.7240     1.0420     7.3160 ha         1 BRA       0.136000
     63 H24         -7.6910     2.3190     9.1520 ha         1 BRA       0.134000
     64 H16         -6.4830     3.2240    12.3340 h1         1 BRA       0.033033
     65 H16A        -7.8030     3.3270    11.1610 h1         1 BRA       0.033033
     66 H16B        -6.1570     2.9820    10.6120 h1         1 BRA       0.033033
     67 H18         -6.2600     1.4130    13.4670 h1         1 BRA       0.033033
     68 H18A        -7.6530     0.3370    13.2930 h1         1 BRA       0.033033
     69 H18B        -6.0940    -0.1140    12.5910 h1         1 BRA       0.033033
     70 H26         -7.8620    -1.1500    11.6590 ha         1 BRA       0.134000
     71 H27         -8.8970    -2.4250     9.8230 ha         1 BRA       0.136000
     72 H11        -10.4490     0.5160     1.9920 ha         1 BRA       0.179000
     73 H14        -11.6760    -0.5090     6.7190 ha         1 BRA       0.143000
     74 H13        -13.2800     0.5070     5.2000 ha         1 BRA       0.127500
     75 HN21       -13.6200     1.7190     3.0730 hn         1 BRA       0.323500
     76 H45        -13.6400     2.6110     0.4510 hc         1 BRA       0.068450
     77 H45A       -14.8930     1.4050     0.7770 hc         1 BRA       0.068450
     78 H46        -13.9450    -0.0550    -0.9790 h1         1 BRA       0.052950
     79 H46A       -12.6930     1.1510    -1.3060 h1         1 BRA       0.052950
     80 H48        -16.4770     2.0870    -0.9230 h1         1 BRA       0.043450
     81 H48A       -16.0930     0.3630    -1.1620 h1         1 BRA       0.043450
     82 H49        -17.6180     0.7510    -2.9690 hc         1 BRA       0.049700
     83 H49A       -16.9950     2.4060    -3.2480 hc         1 BRA       0.049700
     84 H50        -15.7740     1.1780    -4.9120 hc         1 BRA       0.049700
     85 H50A       -15.6420    -0.2650    -3.8670 hc         1 BRA       0.049700
     86 H51        -13.5600     0.6320    -3.3370 h1         1 BRA       0.043450
     87 H51A       -14.0410     2.2730    -3.8200 h1         1 BRA       0.043450
@<TRIPOS>BOND
     1     1     5 1
     2     1     2 1
     3     1    45 1
     4     1    46 1
     5     3     2 1
     6     2    47 1
     7     2    48 1
     8     4     3 1
     9     3    49 1
    10     3    50 1
    11     4     5 1
    12     4    51 1
    13     4    52 1
    14     6     5 1
    15     6     7 1
    16     6    53 1
    17     6    54 1
    18     8     7 1
    19     7    55 1
    20     7    56 1
    21    10     8 1
    22     8     9 2
    23    11    10 1
    24    10    57 1
    25    12    11 ar
    26    11    13 ar
    27    27    12 ar
    28    12    58 1
    29    14    13 ar
    30    13    59 1
    31    15    14 ar
    32    14    60 1
    33    27    15 ar
    34    16    15 ar
    35    31    16 ar
    36    16    17 1
    37    18    17 1
    38    17    61 1
    39    19    18 ar
    40    18    26 ar
    41    20    19 ar
    42    19    62 1
    43    20    21 ar
    44    20    63 1
    45    22    21 1
    46    21    25 ar
    47    24    22 1
    48    22    23 1
    49    23    64 1
    50    23    65 1
    51    23    66 1
    52    24    67 1
    53    24    68 1
    54    24    69 1
    55    25    26 ar
    56    25    70 1
    57    26    71 1
    58    28    27 ar
    59    28    29 ar
    60    30    29 ar
    61    29    31 ar
    62    30    34 ar
    63    30    72 1
    64    32    31 ar
    65    33    32 ar
    66    32    73 1
    67    34    33 ar
    68    33    74 1
    69    35    34 1
    70    36    35 1
    71    35    75 1
    72    37    36 2
    73    38    36 1
    74    39    38 1
    75    38    76 1
    76    38    77 1
    77    40    39 1
    78    39    78 1
    79    39    79 1
    80    41    40 1
    81    40    44 1
    82    41    42 1
    83    41    80 1
    84    41    81 1
    85    42    43 1
    86    42    82 1
    87    42    83 1
    88    43    44 1
    89    43    84 1
    90    43    85 1
    91    44    86 1
    92    44    87 1
@<TRIPOS>SUBSTRUCTURE
     1 BRA         1 TEMP              0 ****  ****    0 ROOT
