@<TRIPOS>MOLECULE
molecule
   16    16     1     0     0
SMALL
bcc


@<TRIPOS>ATOM
      1 C1           0.0000     0.0000     0.0000 ca         1 BRB      -0.075300
      2 C2           1.3820     0.0000     0.0000 ca         1 BRB      -0.106000
      3 C3           2.0720     0.0000     1.1970 ca         1 BRB      -0.106000
      4 C4           1.3810    -0.0010     2.3940 ca         1 BRB      -0.012900
      5 C5          -0.0020    -0.0010     2.3940 ca         1 BRB      -0.106000
      6 C6          -0.6920     0.0050     1.1970 ca         1 BRB      -0.106000
      7 C7          -0.7530     0.0000    -1.3060 c3         1 BRB       0.186700
      8 Br4          2.3260     0.0000     4.0320 br         1 BRB      -0.097100
      9 O1          -0.9920    -1.3460    -1.7190 oh         1 BRB      -0.602800
     10 H2           1.9240    -0.0020    -0.9380 ha         1 BRB       0.139000
     11 H3           3.1560     0.0000     1.1970 ha         1 BRB       0.145000
     12 H5          -0.5440     0.0000     3.3320 ha         1 BRB       0.145000
     13 H6          -1.7750     0.0050     1.1960 ha         1 BRB       0.139000
     14 H71         -1.7000     0.5110    -1.1770 h1         1 BRB       0.027200
     15 H72         -0.1670     0.5110    -2.0610 h1         1 BRB       0.027200
     16 HO1         -1.4630    -1.3460    -2.5350 ho         1 BRB       0.403000
@<TRIPOS>BOND
     1     1     2 ar
     2     1     6 ar
     3     1     7 1
     4     2     3 ar
     5     2    10 1
     6     3     4 ar
     7     3    11 1
     8     4     5 ar
     9     4     8 1
    10     5     6 ar
    11     5    12 1
    12     6    13 1
    13     7     9 1
    14     7    14 1
    15     7    15 1
    16     9    16 1
@<TRIPOS>SUBSTRUCTURE
     1 BRB         1 TEMP              0 ****  ****    0 ROOT
