@<TRIPOS>MOLECULE
BRB
   16    16     1     0     0
SMALL
bcc


@<TRIPOS>ATOM
      1 C1          0.0760   -0.1120   -0.0530 ca        1 BRB     -0.076300
      2 C2          1.4000    0.3400    0.0170 ca        1 BRB     -0.117500
      3 C3          2.0490    0.4290    1.2450 ca        1 BRB     -0.104500
      4 C4          1.3770    0.0670    2.4180 ca        1 BRB     -0.026900
      5 C5          0.0570   -0.3850    2.3520 ca        1 BRB     -0.104500
      6 C6         -0.5910   -0.4730    1.1200 ca        1 BRB     -0.117500
      7 C7         -0.5800   -0.1910   -1.3920 c3        1 BRB      0.174700
      8 BR4         2.2490    0.1860    4.0710 br        1 BRB     -0.091100
      9 O1         -1.9070   -0.6750   -1.2420 oh        1 BRB     -0.598800
     10 H2          1.9310    0.6260   -0.9030 ha        1 BRB      0.147500
     11 H3          3.0890    0.7860    1.2860 ha        1 BRB      0.146500
     12 H5         -0.4820   -0.6730    3.2690 ha        1 BRB      0.146500
     13 H6         -1.6330   -0.8290    1.0670 ha        1 BRB      0.147500
     14 H71        -0.6020    0.8310   -1.8640 h1        1 BRB      0.034700
     15 H72         0.0030   -0.8860   -2.0590 h1        1 BRB      0.034700
     16 HO1        -2.2830   -0.7070   -2.1300 ho        1 BRB      0.405000
@<TRIPOS>BOND
     1    1    2 ar  
     2    1    6 ar  
     3    1    7 1   
     4    2    3 ar  
     5    2   10 1   
     6    3    4 ar  
     7    3   11 1   
     8    4    5 ar  
     9    4    8 1   
    10    5    6 ar  
    11    5   12 1   
    12    6   13 1   
    13    7    9 1   
    14    7   14 1   
    15    7   15 1   
    16    9   16 1   
@<TRIPOS>SUBSTRUCTURE
     1 BRB         1 TEMP              0 ****  ****    0 ROOT
