@<TRIPOS>MOLECULE
BRC
   37    36     1     0     0
SMALL
bcc


@<TRIPOS>ATOM
      1 C1          0.0110   -0.1190    0.0380 c         1 BRC      0.907600
      2 OE1         0.9640   -0.9470    0.1260 o         1 BRC     -0.852800
      3 OE2        -0.3730    0.6160    0.9930 o         1 BRC     -0.852800
      4 C2         -0.7460   -0.0100   -1.2980 c3        1 BRC     -0.194400
      5 C3          0.2080    0.0580   -2.4650 c3        1 BRC     -0.065400
      6 C4         -0.5170   -0.0230   -3.7920 c3        1 BRC     -0.078400
      7 C5          0.4470    0.0640   -4.9560 c3        1 BRC     -0.078400
      8 C6         -0.2770   -0.0270   -6.2830 c3        1 BRC     -0.078400
      9 C7          0.6880    0.0610   -7.4460 c3        1 BRC     -0.079400
     10 C8         -0.0370   -0.0300   -8.7720 c3        1 BRC     -0.079400
     11 C9          0.9280    0.0570   -9.9350 c3        1 BRC     -0.078400
     12 C10         0.1990   -0.0340  -11.2580 c3        1 BRC     -0.080400
     13 C11         1.1670    0.0550  -12.4220 c3        1 BRC     -0.082400
     14 C12         0.4210   -0.0370  -13.7290 c3        1 BRC     -0.003000
     15 BR1         1.5700    0.0670  -15.2760 br        1 BRC     -0.191400
     16 H21        -1.4040    0.8940   -1.2780 hc        1 BRC      0.018700
     17 H22        -1.4030   -0.9120   -1.3930 hc        1 BRC      0.018700
     18 H31         0.9460   -0.7840   -2.3750 hc        1 BRC      0.044200
     19 H32         0.7910    1.0140   -2.4150 hc        1 BRC      0.044200
     20 H41        -1.2670    0.8080   -3.8640 hc        1 BRC      0.025700
     21 H42        -1.0870   -0.9880   -3.8490 hc        1 BRC      0.025700
     22 H51         1.0130    1.0300   -4.9020 hc        1 BRC      0.036700
     23 H52         1.2000   -0.7640   -4.8800 hc        1 BRC      0.036700
     24 H61        -0.8420   -0.9940   -6.3370 hc        1 BRC      0.034200
     25 H62        -1.0300    0.8000   -6.3570 hc        1 BRC      0.034200
     26 H71         1.4420   -0.7670   -7.3720 hc        1 BRC      0.038200
     27 H72         1.2540    1.0280   -7.3920 hc        1 BRC      0.038200
     28 H81        -0.6030   -0.9980   -8.8240 hc        1 BRC      0.037700
     29 H82        -0.7910    0.7970   -8.8450 hc        1 BRC      0.037700
     30 H91         1.6810   -0.7710   -9.8620 hc        1 BRC      0.041200
     31 H92         1.4940    1.0240   -9.8820 hc        1 BRC      0.041200
     32 H101       -0.5540    0.7950  -11.3310 hc        1 BRC      0.040700
     33 H102       -0.3660   -1.0010  -11.3110 hc        1 BRC      0.040700
     34 H111        1.9190   -0.7750  -12.3460 hc        1 BRC      0.055700
     35 H112        1.7310    1.0230  -12.3660 hc        1 BRC      0.055700
     36 H121       -0.3100    0.7980  -13.8270 h1        1 BRC      0.070700
     37 H122       -0.1200   -1.0090  -13.8080 h1        1 BRC      0.070700
@<TRIPOS>BOND
     1    1    2 1   
     2    1    3 1   
     3    1    4 1   
     4    4    5 1   
     5    4   16 1   
     6    4   17 1   
     7    5    6 1   
     8    5   18 1   
     9    5   19 1   
    10    6    7 1   
    11    6   20 1   
    12    6   21 1   
    13    7    8 1   
    14    7   22 1   
    15    7   23 1   
    16    8    9 1   
    17    8   24 1   
    18    8   25 1   
    19    9   10 1   
    20    9   26 1   
    21    9   27 1   
    22   10   11 1   
    23   10   28 1   
    24   10   29 1   
    25   11   12 1   
    26   11   30 1   
    27   11   31 1   
    28   12   13 1   
    29   12   32 1   
    30   12   33 1   
    31   13   14 1   
    32   13   34 1   
    33   13   35 1   
    34   14   15 1   
    35   14   36 1   
    36   14   37 1   
@<TRIPOS>SUBSTRUCTURE
     1 BRC         1 TEMP              0 ****  ****    0 ROOT
