@<TRIPOS>MOLECULE
molecule
   37    36     1     0     0
SMALL
bcc


@<TRIPOS>ATOM
      1 C1           0.0000     0.0000     0.0000 c          1 BRC       0.891600
      2 OE1          1.2080     0.0000     0.0000 o          1 BRC      -0.857800
      3 OE2         -0.6710     0.0000     1.1620 o          1 BRC      -0.857800
      4 C2          -0.7520     0.0000    -1.3060 c3         1 BRC      -0.183400
      5 C3           0.2420     0.0000    -2.4680 c3         1 BRC      -0.063400
      6 C4          -0.5220     0.0000    -3.7930 c3         1 BRC      -0.088400
      7 C5           0.4720     0.0000    -4.9560 c3         1 BRC      -0.081400
      8 C6          -0.2910     0.0000    -6.2810 c3         1 BRC      -0.083400
      9 C7           0.7030     0.0000    -7.4440 c3         1 BRC      -0.082400
     10 C8          -0.0610     0.0000    -8.7690 c3         1 BRC      -0.082400
     11 C9           0.9330     0.0000    -9.9310 c3         1 BRC      -0.080400
     12 C10          0.1700     0.0000   -11.2560 c3         1 BRC      -0.083400
     13 C11          1.1640     0.0000   -12.4190 c3         1 BRC      -0.085400
     14 C12          0.4000     0.0000   -13.7440 c3         1 BRC       0.009000
     15 Br1          1.6780     0.0000   -15.2380 br         1 BRC      -0.199400
     16 H21         -1.3750     0.8840    -1.3630 hc         1 BRC       0.026700
     17 H22         -1.3750    -0.8840    -1.3630 hc         1 BRC       0.026700
     18 H31          0.8650    -0.8840    -2.4110 hc         1 BRC       0.044700
     19 H32          0.8650     0.8840    -2.4110 hc         1 BRC       0.044700
     20 H41         -1.1450     0.8840    -3.8510 hc         1 BRC       0.028700
     21 H42         -1.1450    -0.8840    -3.8510 hc         1 BRC       0.028700
     22 H51          1.0950    -0.8840    -4.8980 hc         1 BRC       0.038700
     23 H52          1.0950     0.8840    -4.8980 hc         1 BRC       0.038700
     24 H61         -0.9140     0.8840    -6.3390 hc         1 BRC       0.036700
     25 H62         -0.9140    -0.8840    -6.3390 hc         1 BRC       0.036700
     26 H71          1.3260    -0.8840    -7.3860 hc         1 BRC       0.039700
     27 H72          1.3260     0.8840    -7.3860 hc         1 BRC       0.039700
     28 H81         -0.6840    -0.8840    -8.8260 hc         1 BRC       0.039700
     29 H82         -0.6840     0.8840    -8.8260 hc         1 BRC       0.039700
     30 H91          1.5560    -0.8840    -9.8730 hc         1 BRC       0.042700
     31 H92          1.5560     0.8840    -9.8730 hc         1 BRC       0.042700
     32 H101        -0.4530     0.8840   -11.3140 hc         1 BRC       0.041700
     33 H102        -0.4530    -0.8840   -11.3140 hc         1 BRC       0.041700
     34 H111         1.7870    -0.8840   -12.3610 hc         1 BRC       0.055700
     35 H112         1.7870     0.8840   -12.3610 hc         1 BRC       0.055700
     36 H121        -0.2230    -0.8840   -13.8020 h1         1 BRC       0.069700
     37 H122        -0.2230     0.8840   -13.8020 h1         1 BRC       0.069700
@<TRIPOS>BOND
     1     1     2 1
     2     1     3 1
     3     1     4 1
     4     4     5 1
     5     4    16 1
     6     4    17 1
     7     5     6 1
     8     5    18 1
     9     5    19 1
    10     6     7 1
    11     6    20 1
    12     6    21 1
    13     7     8 1
    14     7    22 1
    15     7    23 1
    16     8     9 1
    17     8    24 1
    18     8    25 1
    19     9    10 1
    20     9    26 1
    21     9    27 1
    22    10    11 1
    23    10    28 1
    24    10    29 1
    25    11    12 1
    26    11    30 1
    27    11    31 1
    28    12    13 1
    29    12    32 1
    30    12    33 1
    31    13    14 1
    32    13    34 1
    33    13    35 1
    34    14    15 1
    35    14    36 1
    36    14    37 1
@<TRIPOS>SUBSTRUCTURE
     1 BRC         1 TEMP              0 ****  ****    0 ROOT
