@<TRIPOS>MOLECULE
molecule
   31    32     1     0     0
SMALL
bcc


@<TRIPOS>ATOM
      1 C4           0.0000     0.0000     0.0000 cc         1 BRD      -0.026400
      2 N3           1.4000     0.0000     0.0000 ns         1 BRD      -0.483100
      3 C2           2.2490     0.0000     1.0430 c          1 BRD       0.846500
      4 N1           1.9870    -0.0140     2.3610 n          1 BRD      -0.381000
      5 C7           0.7520    -0.0180     3.0180 cc         1 BRD      -0.003400
      6 C6          -0.4710    -0.0150     2.4790 cd         1 BRD      -0.193000
      7 O2           3.4280    -0.0000     0.7490 o          1 BRD      -0.685500
      8 C1'          3.1630    -0.0190     3.2350 c3         1 BRD       0.322500
      9 O4'          3.9920     1.1340     2.9790 os         1 BRD      -0.381600
     10 C4'          5.3080     0.8210     3.4630 c3         1 BRD       0.131100
     11 C3'          5.4660    -0.7100     3.4110 c3         1 BRD       0.091100
     12 C2'          4.0920    -1.2130     2.8980 c3         1 BRD       0.084100
     13 O2'          3.6860    -2.3890     3.6000 oh         1 BRD      -0.582800
     14 O3'          5.7380    -1.2370     4.7110 oh         1 BRD      -0.579800
     15 C5'          6.3610     1.4840     2.5730 c3         1 BRD       0.142400
     16 O5'          6.2020     2.9030     2.6230 oh         1 BRD      -0.593800
     17 C5          -0.8290    -0.0070     1.0490 cd         1 BRD      -0.186000
     18 HC4         -0.4720     0.0070    -0.9750 h4         1 BRD       0.139000
     19 HN3          1.8290    -0.0000    -0.9040 hn         1 BRD       0.344500
     20 HC7          0.7920    -0.0240     4.1000 h4         1 BRD       0.149000
     21 HC6         -1.2990    -0.0180     3.1780 ha         1 BRD       0.137000
     22 H1'          2.8700    -0.0510     4.2770 h2         1 BRD       0.089700
     23 H4'          5.4140     1.1650     4.4850 h1         1 BRD       0.073700
     24 H3'1         6.2500    -0.9830     2.7150 h1         1 BRD       0.046700
     25 H2'          4.1220    -1.3850     1.8290 h1         1 BRD       0.099700
     26 H2'1         3.8370    -3.1460     3.0580 ho         1 BRD       0.403000
     27 H3'          6.5860    -1.6490     4.7120 ho         1 BRD       0.401000
     28 H5'1         7.3500     1.2200     2.9260 h1         1 BRD       0.031200
     29 H5'2         6.2380     1.1430     1.5530 h1         1 BRD       0.031200
     30 H5'          6.9910     3.3190     2.3160 ho         1 BRD       0.399000
     31 HC5         -1.8880    -0.0070     0.8210 ha         1 BRD       0.135000
@<TRIPOS>BOND
     1     1     2 1
     2     1    17 2
     3     1    18 1
     4     2     3 1
     5     2    19 1
     6     3     4 1
     7     3     7 2
     8     4     5 1
     9     4     8 1
    10     5     6 2
    11     5    20 1
    12     6    17 1
    13     6    21 1
    14     8     9 1
    15     8    12 1
    16     8    22 1
    17     9    10 1
    18    10    11 1
    19    10    15 1
    20    10    23 1
    21    11    12 1
    22    11    14 1
    23    11    24 1
    24    12    13 1
    25    12    25 1
    26    13    26 1
    27    14    27 1
    28    15    16 1
    29    15    28 1
    30    15    29 1
    31    16    30 1
    32    17    31 1
@<TRIPOS>SUBSTRUCTURE
     1 BRD         1 TEMP              0 ****  ****    0 ROOT
