@<TRIPOS>MOLECULE
molecule
   42    45     1     0     0
SMALL
bcc


@<TRIPOS>ATOM
      1 C1           0.0000     0.0000     0.0000 c3         1 BRE      -0.043800
      2 C2           1.5070     0.0000     0.0000 ca         1 BRE      -0.207600
      3 C3           2.2130     0.0000     1.2120 cp         1 BRE       0.486800
      4 C4           2.2070    -0.0070    -1.1980 ca         1 BRE      -0.008600
      5 N1           3.5290     0.0010     1.2580 nb         1 BRE      -0.720000
      6 C5           1.5060    -0.0150    -2.4980 c          1 BRE       0.877200
      7 C23          1.4540     0.0020     2.4830 cp         1 BRE      -0.116500
      8 C6           3.6690    -0.0020    -1.1220 ca         1 BRE      -0.125300
      9 C7           4.2820    -0.0000     0.1560 ca         1 BRE       0.403600
     10 C8           1.8950    -0.7680     3.5590 ca         1 BRE      -0.104500
     11 C9           0.3030     0.7780     2.6060 ca         1 BRE      -0.104500
     12 O1           1.2220    -1.0710    -3.0280 o          1 BRE      -0.816800
     13 O2           1.1820     1.1470    -3.0960 o          1 BRE      -0.816800
     14 C10          4.4590    -0.0040    -2.2740 ca         1 BRE      -0.100000
     15 C11          5.6870    -0.0010     0.2380 ca         1 BRE      -0.163300
     16 C12          1.1880    -0.7660     4.7410 ca         1 BRE      -0.129500
     17 C13         -0.4070     0.7750     3.7880 ca         1 BRE      -0.129500
     18 C14          5.8200    -0.0040    -2.1580 ca         1 BRE       0.085900
     19 C15          6.4290    -0.0030    -0.9020 ca         1 BRE      -0.164000
     20 C16          0.0320     0.0050     4.8630 cp         1 BRE      -0.056000
     21 F1           6.5870    -0.0050    -3.2710 f          1 BRE      -0.158900
     22 C17         -0.7280     0.0060     6.1370 cp         1 BRE      -0.020000
     23 C18         -1.2750     1.1920     6.6230 ca         1 BRE      -0.120000
     24 C19         -0.9020    -1.1780     6.8480 ca         1 BRE      -0.120000
     25 C20         -1.9820     1.1880     7.8080 ca         1 BRE      -0.132000
     26 C21         -2.1470     0.0100     8.5130 ca         1 BRE      -0.139000
     27 C22         -1.6060    -1.1700     8.0360 ca         1 BRE      -0.132000
     28 H11         -0.3610    -0.5480    -0.8620 hc         1 BRE       0.047700
     29 H12         -0.3610     1.0200    -0.0440 hc         1 BRE       0.047700
     30 H13         -0.3610    -0.4720     0.9060 hc         1 BRE       0.047700
     31 H81          2.7920    -1.3670     3.4660 ha         1 BRE       0.150500
     32 H91         -0.0390     1.3770     1.7710 ha         1 BRE       0.150500
     33 H101         3.9960    -0.0040    -3.2530 ha         1 BRE       0.179000
     34 H111         6.1750     0.0000     1.2050 ha         1 BRE       0.135000
     35 H121         1.5300    -1.3650     5.5770 ha         1 BRE       0.126500
     36 H131        -1.3030     1.3770     3.8830 ha         1 BRE       0.126500
     37 H151         7.5100    -0.0020    -0.8340 ha         1 BRE       0.125000
     38 H181        -1.1460     2.1160     6.0710 ha         1 BRE       0.135500
     39 H191        -0.4780    -2.1030     6.4760 ha         1 BRE       0.135500
     40 H201        -2.4090     2.1090     8.1870 ha         1 BRE       0.123500
     41 H211        -2.7010     0.0110     9.4440 ha         1 BRE       0.120000
     42 H221        -1.7400    -2.0900     8.5910 ha         1 BRE       0.123500
@<TRIPOS>BOND
     1     1     2 1
     2     1    28 1
     3     1    29 1
     4     1    30 1
     5     2     3 ar
     6     2     4 ar
     7     3     5 ar
     8     3     7 1
     9     4     6 1
    10     4     8 ar
    11     5     9 ar
    12     6    12 1
    13     6    13 1
    14     7    10 ar
    15     7    11 ar
    16     8     9 ar
    17     8    14 ar
    18     9    15 ar
    19    10    16 ar
    20    10    31 1
    21    11    17 ar
    22    11    32 1
    23    14    18 ar
    24    14    33 1
    25    15    19 ar
    26    15    34 1
    27    16    20 ar
    28    16    35 1
    29    17    20 ar
    30    17    36 1
    31    18    19 ar
    32    18    21 1
    33    19    37 1
    34    20    22 1
    35    22    23 ar
    36    22    24 ar
    37    23    25 ar
    38    23    38 1
    39    24    27 ar
    40    24    39 1
    41    25    26 ar
    42    25    40 1
    43    26    27 ar
    44    26    41 1
    45    27    42 1
@<TRIPOS>SUBSTRUCTURE
     1 BRE         1 TEMP              0 ****  ****    0 ROOT
