@<TRIPOS>MOLECULE
BRE
   42    45     1     0     0
SMALL
bcc


@<TRIPOS>ATOM
      1 C1          0.0300   -0.3010   -0.0530 c3        1 BRE     -0.057800
      2 C2          1.5010   -0.1400   -0.0310 ca        1 BRE     -0.177600
      3 C3          2.2060   -0.0180    1.2170 cp        1 BRE      0.453800
      4 C4          2.2310   -0.1200   -1.2090 ca        1 BRE     -0.057600
      5 N1          3.5340    0.0860    1.3100 nb        1 BRE     -0.688000
      6 C5          1.5590   -0.2640   -2.5770 c         1 BRE      0.908200
      7 C23         1.4420   -0.0110    2.4850 cp        1 BRE     -0.106500
      8 C6          3.6480    0.0270   -1.1410 ca        1 BRE     -0.107300
      9 C7          4.2650    0.1090    0.1450 ca        1 BRE      0.372600
     10 C8          1.7260   -0.9480    3.4860 ca        1 BRE     -0.109000
     11 C9          0.4430    0.9460    2.7040 ca        1 BRE     -0.109000
     12 O1          0.9520   -1.3420   -2.8190 o         1 BRE     -0.811800
     13 O2          1.6650    0.7010   -3.3820 o         1 BRE     -0.811800
     14 C10         4.4450    0.0940   -2.3130 ca        1 BRE     -0.100000
     15 C11         5.6940    0.2260    0.2150 ca        1 BRE     -0.166300
     16 C12         1.0120   -0.9360    4.6820 ca        1 BRE     -0.126000
     17 C13        -0.2640    0.9620    3.9020 ca        1 BRE     -0.126000
     18 C14         5.8190    0.2110   -2.2050 ca        1 BRE      0.073900
     19 C15         6.4480    0.2720   -0.9240 ca        1 BRE     -0.164000
     20 C16         0.0110    0.0190    4.9040 cp        1 BRE     -0.058000
     21 F1          6.6030    0.2740   -3.3130 f         1 BRE     -0.159900
     22 C17        -0.7350    0.0340    6.1600 cp        1 BRE     -0.017000
     23 C18        -1.0600    1.2490    6.7810 ca        1 BRE     -0.123000
     24 C19        -1.1360   -1.1670    6.7640 ca        1 BRE     -0.123000
     25 C20        -1.7710    1.2600    7.9800 ca        1 BRE     -0.134000
     26 C21        -2.1670    0.0610    8.5720 ca        1 BRE     -0.140000
     27 C22        -1.8480   -1.1510    7.9610 ca        1 BRE     -0.134000
     28 H11        -0.2780   -0.8930   -0.9550 hc        1 BRE      0.051033
     29 H12        -0.3350   -0.8250    0.8650 hc        1 BRE      0.051033
     30 H13        -0.4640    0.7020   -0.1070 hc        1 BRE      0.051033
     31 H81         2.5210   -1.6920    3.3260 ha        1 BRE      0.145500
     32 H91         0.2160    1.6820    1.9170 ha        1 BRE      0.145500
     33 H101        3.9380    0.0720   -3.2950 ha        1 BRE      0.195000
     34 H111        6.1750    0.2800    1.2040 ha        1 BRE      0.134000
     35 H121        1.2430   -1.6760    5.4630 ha        1 BRE      0.126000
     36 H131       -1.0500    1.7140    4.0620 ha        1 BRE      0.126000
     37 H151        7.5430    0.3610   -0.8810 ha        1 BRE      0.128000
     38 H181       -0.7450    2.1960    6.3190 ha        1 BRE      0.136500
     39 H191       -0.8930   -2.1260    6.2810 ha        1 BRE      0.136500
     40 H201       -2.0190    2.2180    8.4590 ha        1 BRE      0.125000
     41 H211       -2.7280    0.0720    9.5170 ha        1 BRE      0.123000
     42 H221       -2.1610   -2.0980    8.4240 ha        1 BRE      0.125000
@<TRIPOS>BOND
     1    1    2 1   
     2    1   28 1   
     3    1   29 1   
     4    1   30 1   
     5    2    3 ar  
     6    2    4 ar  
     7    3    5 ar  
     8    3    7 1   
     9    4    6 1   
    10    4    8 ar  
    11    5    9 ar  
    12    6   12 1   
    13    6   13 1   
    14    7   10 ar  
    15    7   11 ar  
    16    8    9 ar  
    17    8   14 ar  
    18    9   15 ar  
    19   10   16 ar  
    20   10   31 1   
    21   11   17 ar  
    22   11   32 1   
    23   14   18 ar  
    24   14   33 1   
    25   15   19 ar  
    26   15   34 1   
    27   16   20 ar  
    28   16   35 1   
    29   17   20 ar  
    30   17   36 1   
    31   18   19 ar  
    32   18   21 1   
    33   19   37 1   
    34   20   22 1   
    35   22   23 ar  
    36   22   24 ar  
    37   23   25 ar  
    38   23   38 1   
    39   24   27 ar  
    40   24   39 1   
    41   25   26 ar  
    42   25   40 1   
    43   26   27 ar  
    44   26   41 1   
    45   27   42 1   
@<TRIPOS>SUBSTRUCTURE
     1 BRE         1 TEMP              0 ****  ****    0 ROOT
