@<TRIPOS>MOLECULE
molecule
   42    45     1     0     0
SMALL
bcc


@<TRIPOS>ATOM
      1 C1           0.0000     0.0000     0.0000 c3         1 BRF      -0.042800
      2 C2           1.5070     0.0000     0.0000 ca         1 BRF      -0.206600
      3 C3           2.2140     0.0000     1.2120 cp         1 BRF       0.486800
      4 C4           2.2070    -0.0030    -1.1970 ca         1 BRF      -0.008600
      5 N1           3.5290     0.0010     1.2580 nb         1 BRF      -0.720000
      6 C5           1.5060    -0.0110    -2.4980 c          1 BRF       0.877200
      7 C23          1.4540    -0.0010     2.4830 cp         1 BRF      -0.112500
      8 C6           3.6680     0.0020    -1.1220 ca         1 BRF      -0.124300
      9 C7           4.2820     0.0020     0.1570 ca         1 BRF       0.403600
     10 C8           1.8940    -0.7730     3.5590 ca         1 BRF      -0.107000
     11 C9           0.3020     0.7750     2.6080 ca         1 BRF      -0.107000
     12 O1           1.2220    -1.0650    -3.0300 o          1 BRF      -0.816800
     13 O2           1.1820     1.1520    -3.0950 o          1 BRF      -0.816800
     14 C10          4.4600     0.0030    -2.2730 ca         1 BRF      -0.100000
     15 C11          5.6870     0.0030     0.2390 ca         1 BRF      -0.163300
     16 C12          1.1880    -0.7730     4.7400 ca         1 BRF      -0.120500
     17 C13         -0.4070     0.7690     3.7880 ca         1 BRF      -0.120500
     18 C14          5.8220     0.0040    -2.1570 ca         1 BRF       0.086900
     19 C15          6.4300     0.0040    -0.9020 ca         1 BRF      -0.165000
     20 C16          0.0320    -0.0030     4.8630 cp         1 BRF      -0.062000
     21 F1           6.5870     0.0050    -3.2700 f          1 BRF      -0.157900
     22 C17         -0.7290    -0.0050     6.1350 cp         1 BRF      -0.058000
     23 C18         -1.2670    -1.1920     6.6290 ca         1 BRF       0.141900
     24 C19         -0.9140     1.1840     6.8410 ca         1 BRF      -0.094000
     25 C20         -1.9710    -1.1870     7.8190 ca         1 BRF      -0.173000
     26 C21         -2.1500    -0.0060     8.5130 ca         1 BRF      -0.114000
     27 C22         -1.6220     1.1770     8.0250 ca         1 BRF      -0.150000
     28 F2          -1.0920    -2.3480     5.9510 f          1 BRF      -0.133900
     29 H1C1        -0.3610    -0.4520    -0.9160 hc         1 BRF       0.047367
     30 H1C2        -0.3610     1.0190     0.0670 hc         1 BRF       0.047367
     31 H1C3        -0.3610    -0.5670     0.8490 hc         1 BRF       0.047367
     32 H8           2.7920    -1.3710     3.4640 ha         1 BRF       0.151500
     33 H9          -0.0400     1.3750     1.7740 ha         1 BRF       0.151500
     34 H10          3.9970     0.0030    -3.2530 ha         1 BRF       0.179000
     35 H11          6.1750     0.0030     1.2060 ha         1 BRF       0.135000
     36 H12          1.5300    -1.3730     5.5750 ha         1 BRF       0.127000
     37 H13         -1.3040     1.3700     3.8830 ha         1 BRF       0.127000
     38 H15          7.5110     0.0040    -0.8340 ha         1 BRF       0.125000
     39 H19         -0.5020     2.1100     6.4600 ha         1 BRF       0.144000
     40 H20         -2.3880    -2.1090     8.2050 ha         1 BRF       0.139000
     41 H21         -2.7030    -0.0060     9.4440 ha         1 BRF       0.127000
     42 H22         -1.7660     2.1000     8.5740 ha         1 BRF       0.128000
@<TRIPOS>BOND
     1     1     2 1
     2     1    29 1
     3     1    30 1
     4     1    31 1
     5     2     3 ar
     6     2     4 ar
     7     3     5 ar
     8     3     7 1
     9     4     6 1
    10     4     8 ar
    11     5     9 ar
    12     6    12 1
    13     6    13 1
    14     7    10 ar
    15     7    11 ar
    16     8     9 ar
    17     8    14 ar
    18     9    15 ar
    19    10    16 ar
    20    10    32 1
    21    11    17 ar
    22    11    33 1
    23    14    18 ar
    24    14    34 1
    25    15    19 ar
    26    15    35 1
    27    16    20 ar
    28    16    36 1
    29    17    20 ar
    30    17    37 1
    31    18    19 ar
    32    18    21 1
    33    19    38 1
    34    20    22 1
    35    22    23 ar
    36    22    24 ar
    37    23    25 ar
    38    23    28 1
    39    24    27 ar
    40    24    39 1
    41    25    26 ar
    42    25    40 1
    43    26    27 ar
    44    26    41 1
    45    27    42 1
@<TRIPOS>SUBSTRUCTURE
     1 BRF         1 TEMP              0 ****  ****    0 ROOT
