@<TRIPOS>MOLECULE
BRG
   17    18     1     0     0
SMALL
bcc


@<TRIPOS>ATOM
      1 N9           0.0000     0.0000     0.0000 nc         1 BRG      -0.486000
      2 C4           1.3430     0.0000     0.0000 cc         1 BRG       0.443300
      3 N3           2.2760     0.0000     0.9720 nc         1 BRG      -0.377700
      4 C2           3.5550    -0.0000     0.6810 cd         1 BRG      -0.028200
      5 N2           4.4710     0.0000     1.7050 nz         1 BRG       0.217400
      6 N1           4.0020     0.0040    -0.6050 ns         1 BRG       0.009600
      7 C6           3.1230     0.0000    -1.6320 c          1 BRG       0.654100
      8 O6           3.5130    -0.0010    -2.7880 o          1 BRG      -0.613500
      9 C5           1.7500     0.0000    -1.3380 cd         1 BRG      -0.487200
     10 N7           0.5930     0.0000    -2.0930 na         1 BRG       0.411100
     11 C8          -0.4440     0.0000    -1.2300 cd         1 BRG       0.261700
     12 Br          -2.2690     0.0000    -1.7240 br         1 BRG      -0.005200
     13 H21          5.0500    -0.8130     1.6350 hn         1 BRG       0.218800
     14 H22          5.0400     0.8210     1.6440 hn         1 BRG       0.218800
     15 H1           4.9850     0.0100    -0.7910 hn         1 BRG       0.191500
     16 H7           0.5350     0.0000    -3.0920 hn         1 BRG       0.153700
     17 H23          3.9900    -0.0080     2.5830 hn         1 BRG       0.218800
@<TRIPOS>BOND
     1     1     2 1   
     2     1    11 2   
     3     2     3 1   
     4     2     9 2   
     5     3     4 2   
     6     4     5 1   
     7     4     6 1   
     8     5    13 1   
     9     5    14 1   
    10     5    17 1   
    11     6     7 1   
    12     6    15 1   
    13     7     8 2   
    14     7     9 1   
    15     9    10 1   
    16    10    11 1   
    17    10    16 1   
    18    11    12 1   
@<TRIPOS>SUBSTRUCTURE
     1 BRG         1 TEMP              0 ****  ****    0 ROOT
