@<TRIPOS>MOLECULE
BRH
   20    20     1     0     0
SMALL
bcc


@<TRIPOS>ATOM
      1 O1          0.0970    0.4370    0.1120 o         1 BRH     -0.744800
      2 C1          1.2620    0.0650   -0.0820 c         1 BRH      0.943600
      3 O2          1.8620   -0.2790   -1.1300 o         1 BRH     -0.744800
      4 C2          2.1750    0.0000    1.2580 c3        1 BRH     -0.083500
      5 N1          3.5530   -0.4410    0.8980 n4        1 BRH     -0.842600
      6 C3          2.1190    1.3650    1.9210 c3        1 BRH     -0.142700
      7 C4          2.8410    1.4220    3.1980 cc        1 BRH      0.311000
      8 C5          4.1760    1.5710    3.5590 cd        1 BRH     -0.328500
      9 BR1         5.6350    1.7710    2.4800 br        1 BRH     -0.003100
     10 C6          4.1350    1.5550    5.0270 cd        1 BRH      0.567600
     11 O3          5.2570    1.6700    5.7830 oh        1 BRH     -0.569300
     12 N2          2.8520    1.4000    5.4450 nc        1 BRH     -0.422300
     13 O4          2.0790    1.3210    4.3750 os        1 BRH     -0.082100
     14 H2          1.7160   -0.7790    1.9250 hx        1 BRH      0.100700
     15 H3          3.7760   -1.3290    1.3370 hn        1 BRH      0.448133
     16 H4          3.5530   -0.5640   -0.1440 hn        1 BRH      0.448133
     17 H5          1.0200    1.5860    2.0780 hc        1 BRH      0.122700
     18 H6          2.5200    2.1600    1.2330 hc        1 BRH      0.122700
     19 H7          5.0030    1.6780    6.7230 ho        1 BRH      0.452000
     20 H13         4.2540    0.2580    1.1610 hn        1 BRH      0.448133
@<TRIPOS>BOND
     1    1    2 1
     2    2    3 1
     3    2    4 1
     4    4    5 1
     5    4    6 1
     6    4   14 1
     7    5   15 1
     8    5   16 1
     9    5   20 1
    10    6    7 1
    11    6   17 1
    12    6   18 1
    13    7    8 2
    14    7   13 1
    15    8    9 1
    16    8   10 1
    17   10   11 1
    18   10   12 2
    19   11   19 1
    20   12   13 1
@<TRIPOS>SUBSTRUCTURE
     1 BRH         1 TEMP              0 ****  ****    0 ROOT
