@<TRIPOS>MOLECULE
BRJ
    9     8     1     0     0
SMALL
bcc


@<TRIPOS>ATOM
      1 OB1         0.1070    0.3920   -0.2830 oh        1 BRJ     -0.592800
      2 CB1         1.4830    0.1340   -0.1020 c3        1 BRJ      0.130400
      3 CB          1.8520   -0.0590    1.3540 c3        1 BRJ     -0.058000
      4 BR1         1.3630   -1.7800    2.0690 br        1 BRJ     -0.175400
      5 HB1        -0.3770   -0.3920    0.0040 ho        1 BRJ      0.407000
      6 HB11        1.9900    1.0620   -0.4910 h1        1 BRJ      0.058700
      7 HB12        1.8020   -0.7470   -0.7210 h1        1 BRJ      0.058700
      8 HB1A        1.3380    0.7030    1.9860 h1        1 BRJ      0.085200
      9 HB2         2.9550    0.0320    1.4810 h1        1 BRJ      0.085200
@<TRIPOS>BOND
     1    1    2 1   
     2    1    5 1   
     3    2    3 1   
     4    2    6 1   
     5    2    7 1   
     6    3    4 1   
     7    3    8 1   
     8    3    9 1   
@<TRIPOS>SUBSTRUCTURE
     1 BRJ         1 TEMP              0 ****  ****    0 ROOT
