@<TRIPOS>MOLECULE
molecule
    9     8     1     0     0
SMALL
bcc


@<TRIPOS>ATOM
      1 OB1          0.0000     0.0000     0.0000 oh         1 BRJ      -0.599800
      2 CB1          1.4270     0.0000     0.0000 c3         1 BRJ       0.139400
      3 CB           1.9390     0.0000     1.4420 c3         1 BRJ       0.003000
      4 Br1          1.2830    -1.6020     2.3710 br         1 BRJ      -0.164400
      5 HB1         -0.3140     0.0690    -0.8860 ho         1 BRJ       0.406000
      6 HB11         1.7880    -0.8840    -0.5110 h1         1 BRJ       0.030700
      7 HB12         1.7880     0.8840    -0.5110 h1         1 BRJ       0.030700
      8 HB1A         1.5800     0.8860     1.9520 h1         1 BRJ       0.077700
      9 HB2          3.0220    -0.0020     1.4410 h1         1 BRJ       0.077700
@<TRIPOS>BOND
     1     1     2 1
     2     1     5 1
     3     2     3 1
     4     2     6 1
     5     2     7 1
     6     3     4 1
     7     3     8 1
     8     3     9 1
@<TRIPOS>SUBSTRUCTURE
     1 BRJ         1 TEMP              0 ****  ****    0 ROOT
