@<TRIPOS>MOLECULE
BRK
   42    44     1     0     0
SMALL
bcc


@<TRIPOS>ATOM
      1 CAB         0.4150   -0.0680   -0.4790 c3        1 BRK      0.112700
      2 OAP         1.6900    0.3520   -0.0070 os        1 BRK     -0.324900
      3 CAU         1.9430    0.1480    1.3340 ca        1 BRK      0.144100
      4 CAJ         3.2230    0.5500    1.7620 ca        1 BRK     -0.190500
      5 CAL         3.5730    0.3870    3.0950 ca        1 BRK     -0.057500
      6 CAI         1.0320   -0.4140    2.2360 ca        1 BRK     -0.190500
      7 CAK         1.3980   -0.5620    3.5730 ca        1 BRK     -0.057500
      8 CAW         2.6610   -0.1570    4.0130 ca        1 BRK     -0.189600
      9 CAR         3.0840   -0.3110    5.4250 c         1 BRK      0.647900
     10 OAD         4.2580   -0.6340    5.6960 o         1 BRK     -0.601100
     11 CAY         2.1030   -0.0350    6.4460 cc        1 BRK     -0.344600
     12 SAQ         0.5320    0.5510    6.1210 ss        1 BRK     -0.089800
     13 CAV         2.3270   -0.1440    7.8280 cd        1 BRK      0.417000
     14 NAC         3.4500   -0.6830    8.4140 nh        1 BRK     -0.831600
     15 NAM         1.2480    0.3180    8.6010 na        1 BRK     -0.724000
     16 CAX         0.1200    0.6900    7.8200 cc        1 BRK      0.632100
     17 NAN        -0.9870    1.0380    8.4130 nf        1 BRK     -0.641100
     18 CAS        -2.1350    1.4700    7.7390 ca        1 BRK      0.130400
     19 CAE        -3.3540    1.4330    8.4680 ca        1 BRK     -0.105500
     20 CAG        -4.5370    1.8680    7.8980 ca        1 BRK     -0.171000
     21 CAT        -4.5390    2.3600    6.5780 ca        1 BRK      0.117100
     22 OAO        -5.7750    2.7610    6.1080 os        1 BRK     -0.325900
     23 CAA        -5.8020    3.2890    4.7880 c3        1 BRK      0.113700
     24 CAH        -3.3520    2.4150    5.8440 ca        1 BRK     -0.171000
     25 CAF        -2.1640    1.9720    6.4210 ca        1 BRK     -0.105500
     26 HAB1       -0.4010    0.4960    0.0340 h1        1 BRK      0.046033
     27 HAB2        0.4460    0.1850   -1.5690 h1        1 BRK      0.046033
     28 HAB3        0.2830   -1.1680   -0.3330 h1        1 BRK      0.046033
     29 HAJ         3.9260    0.9810    1.0360 ha        1 BRK      0.147000
     30 HAL         4.5770    0.6770    3.4440 ha        1 BRK      0.151500
     31 HAI         0.0360   -0.7430    1.9070 ha        1 BRK      0.147000
     32 HAK         0.6830   -1.0220    4.2780 ha        1 BRK      0.151500
     33 HAC1        3.6650   -0.4460    9.3530 hn        1 BRK      0.447300
     34 HAC2        4.2200   -0.8450    7.7950 hn        1 BRK      0.447300
     35 HAM         1.1870    0.1910    9.5830 hn        1 BRK      0.466800
     36 HAE        -3.3610    1.0540    9.5020 ha        1 BRK      0.144500
     37 HAG        -5.4810    1.8360    8.4610 ha        1 BRK      0.144500
     38 HAA1       -6.8790    3.5510    4.6340 h1        1 BRK      0.044033
     39 HAA2       -5.4750    2.5180    4.0480 h1        1 BRK      0.044033
     40 HAA3       -5.1600    4.2000    4.7130 h1        1 BRK      0.044033
     41 HAH        -3.3380    2.8040    4.8160 ha        1 BRK      0.144500
     42 HAF        -1.2380    2.0530    5.8260 ha        1 BRK      0.144500
@<TRIPOS>BOND
     1    1    2 1   
     2    1   26 1   
     3    1   27 1   
     4    1   28 1   
     5    2    3 1   
     6    3    4 ar  
     7    3    6 ar  
     8    4    5 ar  
     9    4   29 1   
    10    5    8 ar  
    11    5   30 1   
    12    6    7 ar  
    13    6   31 1   
    14    7    8 ar  
    15    7   32 1   
    16    8    9 1   
    17    9   10 2   
    18    9   11 1   
    19   11   12 1   
    20   11   13 2   
    21   12   16 1   
    22   13   14 1   
    23   13   15 1   
    24   14   33 1   
    25   14   34 1   
    26   15   16 1   
    27   15   35 1   
    28   16   17 2   
    29   17   18 1   
    30   18   19 ar  
    31   18   25 ar  
    32   19   20 ar  
    33   19   36 1   
    34   20   21 ar  
    35   20   37 1   
    36   21   22 1   
    37   21   24 ar  
    38   22   23 1   
    39   23   38 1   
    40   23   39 1   
    41   23   40 1   
    42   24   25 ar  
    43   24   41 1   
    44   25   42 1   
@<TRIPOS>SUBSTRUCTURE
     1 BRK         1 TEMP              0 ****  ****    0 ROOT
