@<TRIPOS>MOLECULE
BRL
   44    46     1     0     0
SMALL
bcc


@<TRIPOS>ATOM
      1 S1           0.0000     0.0000     0.0000 ss         1 BRL      -0.348700
      2 O2           2.5370     0.0020    -0.9570 o          1 BRL      -0.552500
      3 O4           1.5210    -0.0010     3.4480 o          1 BRL      -0.608500
      4 O13         -6.2030    -1.2810     0.2010 os         1 BRL      -0.253900
      5 N3           2.1090     0.0000     1.3070 ns         1 BRL      -0.183500
      6 N16         -8.9530    -1.9600     0.4590 nh         1 BRL      -0.484300
      7 N18         -8.1880    -1.9420    -1.7590 nb         1 BRL      -0.638000
      8 C2           1.7870     0.0000     0.0000 c          1 BRL       0.698100
      9 C4           1.2100    -0.0000     2.2770 c          1 BRL       0.608500
     10 C5          -0.2410    -0.0010     1.8200 c3         1 BRL       0.001400
     11 C6          -0.9710    -1.2630     2.2830 c3         1 BRL       0.070900
     12 C7          -2.3720    -1.2680     1.7250 ca         1 BRL      -0.162300
     13 C8          -2.6240    -1.8510     0.4980 ca         1 BRL      -0.044000
     14 C9          -3.9060    -1.8560    -0.0140 ca         1 BRL      -0.183000
     15 C10         -4.9400    -1.2770     0.7040 ca         1 BRL       0.142100
     16 C11         -4.6840    -0.6880     1.9330 ca         1 BRL      -0.183000
     17 C12         -3.4010    -0.6890     2.4440 ca         1 BRL      -0.044000
     18 C14         -7.0310    -0.6190     1.1590 c3         1 BRL       0.151400
     19 C15         -8.4750    -0.5890     0.6520 c3         1 BRL       0.167800
     20 C16         -9.6130    -2.6660     1.5590 c3         1 BRL       0.209100
     21 C17         -8.7800    -2.5890    -0.7680 ca         1 BRL       0.538200
     22 C19         -8.0000    -2.5050    -2.9380 ca         1 BRL       0.451200
     23 C20         -8.4270    -3.7940    -3.1830 ca         1 BRL      -0.290300
     24 C21         -9.0580    -4.5050    -2.1710 ca         1 BRL      -0.020000
     25 C22         -9.2370    -3.8900    -0.9450 ca         1 BRL      -0.306300
     26 HN3          3.0780     0.0000     1.5580 hn         1 BRL       0.193500
     27 H5          -0.7520     0.8970     2.1450 h1         1 BRL       0.094700
     28 H61         -1.0140    -1.2800     3.3650 hc         1 BRL       0.034700
     29 H62         -0.4390    -2.1380     1.9290 hc         1 BRL       0.034700
     30 H8          -1.8150    -2.3040    -0.0630 ha         1 BRL       0.110500
     31 H9          -4.1030    -2.3130    -0.9760 ha         1 BRL       0.127000
     32 H11         -5.4910    -0.2340     2.4950 ha         1 BRL       0.127000
     33 H12         -3.2000    -0.2290     3.4040 ha         1 BRL       0.110500
     34 H141        -6.9900    -1.1520     2.1010 h1         1 BRL       0.012700
     35 H142        -6.6770     0.3950     1.3020 h1         1 BRL       0.012700
     36 H151        -8.5160    -0.0550    -0.2900 h1         1 BRL       0.038200
     37 H152        -9.1020    -0.0860     1.3790 h1         1 BRL       0.038200
     38 H161        -9.0660    -3.5740     1.7850 h1         1 BRL       0.005700
     39 H162       -10.6260    -2.9170     1.2700 h1         1 BRL       0.005700
     40 H163        -9.6340    -2.0300     2.4350 h1         1 BRL       0.005700
     41 H19         -7.5090    -1.9450    -3.7250 h4         1 BRL      -0.025900
     42 H20         -8.2700    -4.2470    -4.1550 ha         1 BRL       0.113000
     43 H21         -9.4040    -5.5180    -2.3380 ha         1 BRL       0.101000
     44 H22         -9.7250    -4.4160    -0.1330 ha         1 BRL       0.121000
@<TRIPOS>BOND
     1     1     8 1   
     2     1    10 1   
     3     2     8 2   
     4     3     9 2   
     5     4    15 1   
     6     4    18 1   
     7     5     8 1   
     8     5     9 1   
     9     5    26 1   
    10     6    19 1   
    11     6    20 1   
    12     6    21 1   
    13     7    21 ar  
    14     7    22 ar  
    15     9    10 1   
    16    10    11 1   
    17    10    27 1   
    18    11    12 1   
    19    11    28 1   
    20    11    29 1   
    21    12    13 ar  
    22    12    17 ar  
    23    13    14 ar  
    24    13    30 1   
    25    14    15 ar  
    26    14    31 1   
    27    15    16 ar  
    28    16    17 ar  
    29    16    32 1   
    30    17    33 1   
    31    18    19 1   
    32    18    34 1   
    33    18    35 1   
    34    19    36 1   
    35    19    37 1   
    36    20    38 1   
    37    20    39 1   
    38    20    40 1   
    39    21    25 ar  
    40    22    23 ar  
    41    22    41 1   
    42    23    24 ar  
    43    23    42 1   
    44    24    25 ar  
    45    24    43 1   
    46    25    44 1   
@<TRIPOS>SUBSTRUCTURE
     1 BRL         1 TEMP              0 ****  ****    0 ROOT
