@<TRIPOS>MOLECULE
molecule
    7     6     1     0     0
SMALL
bcc


@<TRIPOS>ATOM
      1 C1           0.0000     0.0000     0.0000 c          1 BRM       0.885600
      2 O1           1.2250     0.0000     0.0000 o          1 BRM      -0.832300
      3 O2          -0.7440     0.0000     1.1340 o          1 BRM      -0.832300
      4 C2          -0.8360    -0.0150    -1.2400 c3         1 BRM      -0.077000
      5 Br2          0.1740     0.8950    -2.6140 br         1 BRM      -0.258400
      6 H21         -1.7700     0.5040    -1.0630 h1         1 BRM       0.057700
      7 H22         -1.0330    -1.0370    -1.5410 h1         1 BRM       0.057700
@<TRIPOS>BOND
     1     1     2 1
     2     1     3 1
     3     1     4 1
     4     4     5 1
     5     4     6 1
     6     4     7 1
@<TRIPOS>SUBSTRUCTURE
     1 BRM         1 TEMP              0 ****  ****    0 ROOT
