@<TRIPOS>MOLECULE
BRM
    7     6     1     0     0
SMALL
bcc


@<TRIPOS>ATOM
      1 C1         -0.0220   -0.0030    0.0890 c         1 BRM      0.918600
      2 O1          1.1490   -0.4680    0.1470 o         1 BRM     -0.826300
      3 O2         -0.6680    0.4570    1.0700 o         1 BRM     -0.826300
      4 C2         -0.7450   -0.0670   -1.2710 c3        1 BRM     -0.094000
      5 BR2        -0.5050    1.5050   -2.3770 br        1 BRM     -0.267400
      6 H21        -0.3530   -0.9170   -1.8690 h1        1 BRM      0.047700
      7 H22        -1.8400   -0.1600   -1.1140 h1        1 BRM      0.047700
@<TRIPOS>BOND
     1    1    2 1   
     2    1    3 1   
     3    1    4 1   
     4    4    5 1   
     5    4    6 1   
     6    4    7 1   
@<TRIPOS>SUBSTRUCTURE
     1 BRM         1 TEMP              0 ****  ****    0 ROOT
