@<TRIPOS>MOLECULE
BRN
   38    39     1     0     0
SMALL
bcc


@<TRIPOS>ATOM
      1 C1           0.0000     0.0000     0.0000 ca         1 BRN       0.082600
      2 C2           1.3910     0.0000     0.0000 ca         1 BRN      -0.122500
      3 C3           2.0810     0.0000     1.1920 ca         1 BRN      -0.027500
      4 C4           1.3830     0.0000     2.4000 ca         1 BRN      -0.265900
      5 C5          -0.0130    -0.0030     2.3970 ca         1 BRN      -0.027500
      6 C6          -0.6980     0.0010     1.2030 ca         1 BRN      -0.122500
      7 C7           2.1210     0.0000     3.6820 ce         1 BRN       0.211800
      8 NA           3.4240    -0.0010     3.6840 n2         1 BRN      -0.480100
      9 NB           1.4300     0.0010     4.8750 nz         1 BRN       0.191400
     10 N1          -0.6960    -0.0000    -1.2080 nu         1 BRN      -0.021700
     11 N           -2.0950     0.0010    -1.2090 n2         1 BRN      -0.166700
     12 N1'         -2.7400     0.0010    -2.3270 ne         1 BRN      -0.203400
     13 C1'         -4.1090     0.0020    -2.3280 ca         1 BRN       0.143400
     14 C2'         -4.8060     0.0020    -3.5390 ca         1 BRN      -0.056500
     15 C3'         -6.1820     0.0030    -3.5400 ca         1 BRN      -0.069000
     16 C4'         -6.8810     0.0040    -2.3320 ca         1 BRN      -0.216900
     17 C5'         -6.1850     0.0050    -1.1220 ca         1 BRN      -0.069000
     18 C6'         -4.8080    -0.0020    -1.1200 ca         1 BRN      -0.056500
     19 C7'         -8.3610     0.0050    -2.3350 ce         1 BRN       0.200800
     20 NA'         -9.0110     0.0050    -3.4630 n2         1 BRN      -0.465100
     21 NB'         -9.0510     0.0070    -1.1410 nz         1 BRN       0.190400
     22 H2           1.9320    -0.0000    -0.9380 ha         1 BRN       0.136000
     23 H3           3.1640     0.0010     1.1920 ha         1 BRN       0.100500
     24 H5          -0.5570    -0.0030     3.3340 ha         1 BRN       0.100500
     25 H6          -1.7820    -0.0000     1.2000 ha         1 BRN       0.136000
     26 HA           3.9270    -0.0020     2.8180 hn         1 BRN       0.381400
     27 HB1          2.0790     0.0020     5.6370 hn         1 BRN       0.221467
     28 HB2          0.8550    -0.8170     4.9290 hn         1 BRN       0.221467
     29 HN1         -0.1950    -0.0380    -2.0740 hn         1 BRN       0.303800
     30 H2'         -4.2640     0.0010    -4.4770 ha         1 BRN       0.137500
     31 H3'         -6.7230     0.0030    -4.4790 ha         1 BRN       0.102500
     32 H5'         -6.7280     0.0040    -0.1840 ha         1 BRN       0.102500
     33 H6'         -4.2680    -0.0010    -0.1810 ha         1 BRN       0.137500
     34 HA'         -8.5110     0.0040    -4.3300 hn         1 BRN       0.382400
     35 HB'1        -8.8090     0.8240    -0.6170 hn         1 BRN       0.222467
     36 HB'2        -8.8110    -0.8100    -0.6150 hn         1 BRN       0.222467
     37 HB3          0.8470     0.8130     4.9230 hn         1 BRN       0.221467
     38 HB'3       -10.0350    -0.0010    -1.3250 hn         1 BRN       0.222467
@<TRIPOS>BOND
     1     1     2 ar  
     2     1     6 ar  
     3     1    10 1   
     4     2     3 ar  
     5     2    22 1   
     6     3     4 ar  
     7     3    23 1   
     8     4     5 ar  
     9     4     7 1   
    10     5     6 ar  
    11     5    24 1   
    12     6    25 1   
    13     7     8 2   
    14     7     9 1   
    15     8    26 1   
    16     9    27 1   
    17     9    28 1   
    18     9    37 1   
    19    10    11 1   
    20    10    29 1   
    21    11    12 2   
    22    12    13 1   
    23    13    14 ar  
    24    13    18 ar  
    25    14    15 ar  
    26    14    30 1   
    27    15    16 ar  
    28    15    31 1   
    29    16    17 ar  
    30    16    19 1   
    31    17    18 ar  
    32    17    32 1   
    33    18    33 1   
    34    19    20 2   
    35    19    21 1   
    36    20    34 1   
    37    21    35 1   
    38    21    36 1   
    39    21    38 1   
@<TRIPOS>SUBSTRUCTURE
     1 BRN         1 TEMP              0 ****  ****    0 ROOT
