@<TRIPOS>MOLECULE
molecule
   38    39     1     0     0
SMALL
bcc


@<TRIPOS>ATOM
      1 C1           0.0000     0.0000     0.0000 ca         1 BRN       0.248600
      2 C2           1.3910     0.0000     0.0000 ca         1 BRN      -0.166000
      3 C3           2.0810     0.0000     1.1920 ca         1 BRN      -0.043500
      4 C4           1.3830     0.0000     2.4000 ca         1 BRN      -0.232900
      5 C5          -0.0130    -0.0030     2.3970 ca         1 BRN      -0.043500
      6 C6          -0.6980     0.0010     1.2030 ca         1 BRN      -0.166000
      7 C7           2.1210     0.0000     3.6820 ce         1 BRN       0.543800
      8 NA           3.4240    -0.0010     3.6840 n2         1 BRN      -0.679100
      9 NB           1.4300     0.0010     4.8750 nz         1 BRN      -0.801600
     10 N1          -0.6960    -0.0000    -1.2080 nu         1 BRN      -0.457700
     11 N           -2.0950     0.0010    -1.2090 n2         1 BRN      -0.019700
     12 N1'         -2.7400     0.0010    -2.3270 ne         1 BRN      -0.293400
     13 C1'         -4.1090     0.0020    -2.3280 ca         1 BRN       0.192400
     14 C2'         -4.8060     0.0020    -3.5390 ca         1 BRN      -0.100500
     15 C3'         -6.1820     0.0030    -3.5400 ca         1 BRN      -0.081500
     16 C4'         -6.8810     0.0040    -2.3320 ca         1 BRN      -0.183900
     17 C5'         -6.1850     0.0050    -1.1220 ca         1 BRN      -0.081500
     18 C6'         -4.8080    -0.0020    -1.1200 ca         1 BRN      -0.100500
     19 C7'         -8.3610     0.0050    -2.3350 ce         1 BRN       0.534800
     20 NA'         -9.0110     0.0050    -3.4630 n2         1 BRN      -0.667100
     21 NB'         -9.0510     0.0070    -1.1410 nz         1 BRN      -0.801600
     22 H2           1.9320    -0.0000    -0.9380 ha         1 BRN       0.166000
     23 H3           3.1640     0.0010     1.1920 ha         1 BRN       0.145000
     24 H5          -0.5570    -0.0030     3.3340 ha         1 BRN       0.145000
     25 H6          -1.7820    -0.0000     1.2000 ha         1 BRN       0.166000
     26 HA           3.9240    -0.0010     4.5510 hn         1 BRN       0.438400
     27 HB1          0.8540     0.8180     4.9270 hn         1 BRN       0.465133
     28 HB2          0.8550    -0.8170     4.9290 hn         1 BRN       0.465133
     29 HN1         -0.1950    -0.0380    -2.0740 hn         1 BRN       0.466800
     30 H2'         -4.2640     0.0010    -4.4770 ha         1 BRN       0.172500
     31 H3'         -6.7230     0.0030    -4.4790 ha         1 BRN       0.146000
     32 H5'         -6.7280     0.0040    -0.1840 ha         1 BRN       0.146000
     33 H6'         -4.2680    -0.0010    -0.1810 ha         1 BRN       0.172500
     34 HA'        -10.0110     0.0060    -3.4650 hn         1 BRN       0.441400
     35 HB'1        -8.8110    -0.8100    -0.6150 hn         1 BRN       0.466467
     36 HB'2       -10.0350     0.0080    -1.3250 hn         1 BRN       0.466467
     37 HB3          2.0790     0.0030     5.6370 hn         1 BRN       0.465133
     38 HB'3        -8.8090     0.8240    -0.6170 hn         1 BRN       0.466467
@<TRIPOS>BOND
     1     1     2 ar
     2     1     6 ar
     3     1    10 1
     4     2     3 ar
     5     2    22 1
     6     3     4 ar
     7     3    23 1
     8     4     5 ar
     9     4     7 1
    10     5     6 ar
    11     5    24 1
    12     6    25 1
    13     7     8 2
    14     7     9 1
    15     8    26 1
    16     9    27 1
    17     9    28 1
    18    10    11 1
    19    10    29 1
    20    11    12 2
    21    12    13 1
    22    13    14 ar
    23    13    18 ar
    24    14    15 ar
    25    14    30 1
    26    15    16 ar
    27    15    31 1
    28    16    17 ar
    29    16    19 1
    30    17    18 ar
    31    17    32 1
    32    18    33 1
    33    19    20 2
    34    19    21 1
    35    20    34 1
    36    21    35 1
    37    21    36 1
    38    37     9 1
    39    38    21 1
@<TRIPOS>SUBSTRUCTURE
     1 BRN         1 TEMP              0 ****  ****    0 ROOT
