@<TRIPOS>MOLECULE
BRP
   10     9     1     0     0
SMALL
bcc


@<TRIPOS>ATOM
      1 C1          0.0420   -0.1380   -0.0260 c2        1 BRP     -0.155000
      2 C2          1.3590    0.0120    0.1150 c2        1 BRP     -0.120500
      3 C3          2.0130    0.0930    1.4610 c3        1 BRP      0.170600
      4 BR          2.4970    0.1560   -1.3760 br        1 BRP     -0.094700
      5 O           2.7240   -1.0790    1.8030 oh        1 BRP     -0.587800
      6 H11        -0.6240   -0.2300    0.8450 ha        1 BRP      0.130500
      7 H12        -0.4620   -0.1820   -1.0020 ha        1 BRP      0.130500
      8 H31         2.6960    0.9860    1.5030 h1        1 BRP      0.059200
      9 H32         1.2350    0.1860    2.2700 h1        1 BRP      0.059200
     10 H           3.3980   -1.2220    1.1260 ho        1 BRP      0.406000
@<TRIPOS>BOND
     1    1    2 2   
     2    1    6 1   
     3    1    7 1   
     4    2    3 1   
     5    2    4 1   
     6    3    5 1   
     7    3    8 1   
     8    3    9 1   
     9    5   10 1   
@<TRIPOS>SUBSTRUCTURE
     1 BRP         1 TEMP              0 ****  ****    0 ROOT
