@<TRIPOS>MOLECULE
molecule
   10     9     1     0     0
SMALL
bcc


@<TRIPOS>ATOM
      1 C1           0.0000     0.0000     0.0000 c2         1 BRP      -0.174000
      2 C2           1.3120     0.0000     0.0000 c2         1 BRP      -0.068500
      3 C3           2.0640     0.0000     1.3060 c3         1 BRP       0.186600
      4 Br           2.2560     0.0020    -1.6360 br         1 BRP      -0.076700
      5 O            2.8860    -1.1650     1.3810 oh         1 BRP      -0.597800
      6 H11         -0.5420     0.0010    -0.9380 ha         1 BRP       0.129500
      7 H12         -0.5420     0.0000     0.9380 ha         1 BRP       0.129500
      8 H31          1.3590    -0.0010     2.1290 h1         1 BRP       0.033200
      9 H32          2.6860     0.8850     1.3650 h1         1 BRP       0.033200
     10 H            3.4120    -1.1290     2.1630 ho         1 BRP       0.405000
@<TRIPOS>BOND
     1     1     2 2
     2     1     6 1
     3     1     7 1
     4     2     3 1
     5     2     4 1
     6     3     5 1
     7     3     8 1
     8     3     9 1
     9     5    10 1
@<TRIPOS>SUBSTRUCTURE
     1 BRP         1 TEMP              0 ****  ****    0 ROOT
