@<TRIPOS>MOLECULE
BRQ
   35    37     1     0     0
SMALL
bcc


@<TRIPOS>ATOM
      1 CAL          0.0000     0.0000     0.0000 ca         1 BRQ      -0.099000
      2 CAS          1.3950     0.0000     0.0000 ca         1 BRQ      -0.017600
      3 Cl           2.2570     0.0010    -1.4890 cl         1 BRQ       0.062600
      4 CAF          2.0930     0.0000     1.2090 ca         1 BRQ      -0.069000
      5 CAE          1.3930    -0.0000     2.4170 ca         1 BRQ      -0.035000
      6 CAI         -0.0010     0.0000     2.4160 ca         1 BRQ      -0.148000
      7 CAT         -0.5880     0.0000     1.2070 ca         1 BRQ      -0.155200
      8 NAN         -2.0530     0.0000     1.2070 nu         1 BRQ       0.228800
      9 CAV         -2.9920     0.4710     2.0220 cc         1 BRQ      -0.004300
     10 SAO         -4.6720     0.3100     1.7420 ss         1 BRQ       0.031200
     11 NAM         -2.7570     1.1180     3.1420 na         1 BRQ       0.225600
     12 CAR         -3.8790     1.5180     3.8340 cc         1 BRQ      -0.021100
     13 NAA         -3.8210     2.1930     5.0040 nv         1 BRQ      -0.443600
     14 CAW         -4.9750     1.1400     3.1800 cd         1 BRQ      -0.163600
     15 CAP         -6.4040     1.3600     3.5580 c          1 BRQ       0.671900
     16 OAB         -6.6250     1.9710     4.6140 o          1 BRQ      -0.499100
     17 CAU         -7.5090     0.8880     2.7390 ca         1 BRQ      -0.214600
     18 CAJ         -8.0400    -0.3850     2.9510 ca         1 BRQ      -0.028500
     19 CAG         -9.1000    -0.8370     2.1660 ca         1 BRQ      -0.129000
     20 CAQ         -9.6300    -0.0170     1.1700 ca         1 BRQ       0.149900
     21 F          -10.6480    -0.4520     0.4160 f          1 BRQ      -0.105900
     22 CAH         -9.0990     1.2550     0.9590 ca         1 BRQ      -0.129000
     23 CAK         -8.0390     1.7080     1.7430 ca         1 BRQ      -0.028500
     24 HAL         -0.5740     0.0010    -0.9190 ha         1 BRQ       0.142000
     25 HAF          3.1760    -0.0000     1.2100 ha         1 BRQ       0.138000
     26 HAE          1.9340    -0.0000     3.3560 ha         1 BRQ       0.124000
     27 HAI         -0.5760     0.0000     3.3340 ha         1 BRQ       0.113000
     28 HAM         -1.8300     1.3070     3.4690 hn         1 BRQ       0.163700
     29 H1          -3.7930     1.6930     5.8700 hn         1 BRQ       0.304300
     30 H2          -3.7710     3.1930     5.0020 hn         1 BRQ       0.304300
     31 HAJ         -7.6290    -1.0220     3.7250 ha         1 BRQ       0.113000
     32 HAK         -7.6270     2.6960     1.5790 ha         1 BRQ       0.113000
     33 HAG         -9.5130    -1.8250     2.3300 ha         1 BRQ       0.134000
     34 HAH         -9.5110     1.8920     0.1850 ha         1 BRQ       0.134000
     35 HAN         -2.4360    -0.4620     0.4060 hn         1 BRQ       0.140700
@<TRIPOS>BOND
     1     1     2 ar  
     2     1     7 ar  
     3     1    24 1   
     4     2     3 1   
     5     2     4 ar  
     6     4     5 ar  
     7     4    25 1   
     8     5     6 ar  
     9     5    26 1   
    10     6     7 ar  
    11     6    27 1   
    12     7     8 1   
    13     8     9 2   
    14     8    35 1   
    15     9    10 1   
    16     9    11 1   
    17    10    14 1   
    18    11    12 1   
    19    11    28 1   
    20    12    13 1   
    21    12    14 2   
    22    13    29 1   
    23    13    30 1   
    24    14    15 1   
    25    15    16 2   
    26    15    17 1   
    27    17    18 ar  
    28    17    23 ar  
    29    18    19 ar  
    30    18    31 1   
    31    19    20 ar  
    32    19    33 1   
    33    20    21 1   
    34    20    22 ar  
    35    22    23 ar  
    36    22    34 1   
    37    23    32 1   
@<TRIPOS>SUBSTRUCTURE
     1 BRQ         1 TEMP              0 ****  ****    0 ROOT
