@<TRIPOS>MOLECULE
BRR
   27    26     1     0     0
SMALL
bcc


@<TRIPOS>ATOM
      1 C10          0.0000     0.0000     0.0000 c3         1 BRR       0.005900
      2 C9           1.5290     0.0000     0.0000 c3         1 BRR      -0.024400
      3 C8           2.0400     0.0000     1.4410 c3         1 BRR      -0.070400
      4 C7           3.5700     0.0010     1.4420 c3         1 BRR       0.006600
      5 C6           4.0820     0.0020     2.8830 c3         1 BRR      -0.186700
      6 C11          3.5810    -1.2280     3.5940 c          1 BRR       0.974600
      7 O12          2.8850    -2.0240     3.0080 o          1 BRR      -0.882300
      8 O13          3.9050    -1.4400     4.8780 o          1 BRR      -0.882300
      9 C5           5.6100     0.0020     2.8820 c3         1 BRR       0.080000
     10 N3           6.0990     0.0030     4.2630 n          1 BRR      -0.035300
     11 C2           6.3250    -1.1630     4.8980 c          1 BRR       0.686900
     12 O1           6.7300    -1.1620     6.0410 o          1 BRR      -0.694100
     13 O4           6.3360     1.2290     4.9300 oh         1 BRR      -0.441100
     14 H101        -0.3610    -0.0280    -1.0210 hc         1 BRR      -0.007300
     15 H102        -0.3610     0.8980     0.4870 hc         1 BRR      -0.007300
     16 H103        -0.3610    -0.8700     0.5340 hc         1 BRR      -0.007300
     17 H91          1.8900     0.8840    -0.5110 hc         1 BRR      -0.000800
     18 H92          1.8900    -0.8840    -0.5110 hc         1 BRR      -0.000800
     19 H81          1.6790     0.8840     1.9530 hc         1 BRR       0.047700
     20 H82          1.6790    -0.8850     1.9520 hc         1 BRR       0.047700
     21 H71          3.9300     0.8850     0.9300 hc         1 BRR      -0.005800
     22 H72          3.9310    -0.8840     0.9310 hc         1 BRR      -0.005800
     23 H6           3.7210     0.8860     3.3940 hc         1 BRR       0.039700
     24 H51          5.9710    -0.8820     2.3710 h1         1 BRR       0.001700
     25 H52          5.9700     0.8870     2.3710 h1         1 BRR       0.001700
     26 H2           6.1960    -2.1000     4.3700 h5         1 BRR      -0.001800
     27 HO4          7.2430     1.4700     4.8340 ho         1 BRR       0.360000
@<TRIPOS>BOND
     1     1     2 1   
     2     1    14 1   
     3     1    15 1   
     4     1    16 1   
     5     2     3 1   
     6     2    17 1   
     7     2    18 1   
     8     3     4 1   
     9     3    19 1   
    10     3    20 1   
    11     4     5 1   
    12     4    21 1   
    13     4    22 1   
    14     5     6 1   
    15     5     9 1   
    16     5    23 1   
    17     6     7 1   
    18     6     8 1   
    19     9    10 1   
    20     9    24 1   
    21     9    25 1   
    22    10    11 1   
    23    10    13 1   
    24    11    12 2   
    25    11    26 1   
    26    13    27 1   
@<TRIPOS>SUBSTRUCTURE
     1 BRR         1 TEMP              0 ****  ****    0 ROOT
