@<TRIPOS>MOLECULE
molecule
   33    34     1     0     0
SMALL
bcc


@<TRIPOS>ATOM
      1 N1           0.0000     0.0000     0.0000 no         1 BRS       0.298200
      2 O2           1.2180     0.0000     0.0000 o          1 BRS      -0.187000
      3 O3          -0.6090     0.0000     1.0550 o          1 BRS      -0.187000
      4 O5          -4.9030     0.0040    -3.5340 o          1 BRS      -0.191000
      5 O6          -4.9010     0.0020    -1.4240 o          1 BRS      -0.191000
      6 C7          -2.1210     0.0010    -1.2840 ca         1 BRS      -0.008000
      7 C8          -2.8130     0.0020    -2.4810 ca         1 BRS      -0.174200
      8 C9          -2.1240     0.0030    -3.6800 ca         1 BRS      -0.021000
      9 C10         -0.7420     0.0020    -3.6840 ca         1 BRS      -0.106300
     10 C11         -0.0460    -0.0040    -2.4840 ca         1 BRS       0.211100
     11 C12         -0.7400     0.0010    -1.2830 ca         1 BRS      -0.201200
     12 C14          0.7910    -2.2060    -5.8670 ca         1 BRS      -0.113500
     13 C15         -0.2380    -1.2960    -5.7120 ca         1 BRS      -0.088300
     14 C16         -1.4940    -1.5800    -6.2150 ca         1 BRS      -0.113500
     15 C17         -1.7200    -2.7700    -6.8810 ca         1 BRS      -0.115500
     16 C18         -0.6900    -3.6810    -7.0370 ca         1 BRS       0.032400
     17 C19          0.5650    -3.3980    -6.5290 ca         1 BRS      -0.115500
     18 Cl20        -0.9740    -5.1790    -7.8680 cl         1 BRS      -0.100400
     19 C21          0.0080     0.0040    -4.9910 c3         1 BRS       0.023900
     20 C22         -0.4770     1.1680    -5.8570 c3         1 BRS      -0.095100
     21 HC7         -2.6630    -0.0090    -0.3460 ha         1 BRS       0.201000
     22 HC9         -2.6680     0.0080    -4.6170 ha         1 BRS       0.182000
     23 HO13         1.6280     0.8680    -2.3150 ho         1 BRS       0.450000
     24 HC14         1.7750    -1.9840    -5.4710 ha         1 BRS       0.140000
     25 HC16        -2.3010    -0.8660    -6.0930 ha         1 BRS       0.140000
     26 HC17        -2.7040    -2.9910    -7.2770 ha         1 BRS       0.149500
     27 HC19         1.3720    -4.1110    -6.6510 ha         1 BRS       0.149500
     28 HC21         1.0680     0.1150    -4.7990 hc         1 BRS       0.082700
     29 H221         0.3590     1.8130    -6.0960 hc         1 BRS       0.047700
     30 H222        -1.2260     1.7330    -5.3150 hc         1 BRS       0.047700
     31 H223        -0.9090     0.7810    -6.7720 hc         1 BRS       0.047700
     32 O13          1.3130    -0.0040    -2.4850 oh         1 BRS      -0.491100
     33 N4          -4.2920     0.0030    -2.4790 no         1 BRS       0.296200
@<TRIPOS>BOND
     1     1     2 1
     2     1     3 1
     3     1    11 1
     4    33     4 1
     5    33     5 1
     6    33     7 1
     7     6     7 ar
     8     6    11 ar
     9     6    21 1
    10     7     8 ar
    11     8     9 ar
    12     8    22 1
    13     9    10 ar
    14     9    19 1
    15    10    11 ar
    16    10    32 1
    17    32    23 1
    18    12    13 ar
    19    12    17 ar
    20    12    24 1
    21    13    14 ar
    22    13    19 1
    23    14    15 ar
    24    14    25 1
    25    15    16 ar
    26    15    26 1
    27    16    17 ar
    28    16    18 1
    29    17    27 1
    30    19    20 1
    31    19    28 1
    32    20    29 1
    33    20    30 1
    34    20    31 1
@<TRIPOS>SUBSTRUCTURE
     1 BRS         1 TEMP              0 ****  ****    0 ROOT
