@<TRIPOS>MOLECULE
molecule
   16    16     1     0     0
SMALL
bcc


@<TRIPOS>ATOM
      1 C2           0.0000     0.0000     0.0000 ca         1 BRT       0.461200
      2 N3           1.3160     0.0000     0.0000 nb         1 BRT      -0.653000
      3 C4           2.0130     0.0000     1.1190 ca         1 BRT       0.523200
      4 C5           1.3840     0.0000     2.3520 ca         1 BRT      -0.157200
      5 Br           2.4040    -0.0000     3.9440 br         1 BRT       0.010900
      6 C6           0.0020     0.0050     2.4060 ca         1 BRT       0.027000
      7 C1          -0.7110     0.0000     1.2010 ca         1 BRT      -0.346900
      8 C7          -2.1880     0.0000     1.2000 c          1 BRT       0.512700
      9 O9          -2.7960    -0.0010     2.2530 o          1 BRT      -0.407100
     10 N8          -2.8620     0.0000     0.0330 nz         1 BRT      -0.679400
     11 H2          -0.5370    -0.0000    -0.9410 h4         1 BRT       0.006100
     12 H4           3.0950    -0.0000     1.0730 h4         1 BRT       0.073100
     13 H6          -0.5030     0.2500     3.3330 ha         1 BRT       0.189000
     14 H8N1        -2.6200     0.8170    -0.4920 hn         1 BRT       0.480800
     15 H8N2        -2.6200    -0.8170    -0.4920 hn         1 BRT       0.480800
     16 H83         -3.8460     0.0000     0.2150 hn         1 BRT       0.480800
@<TRIPOS>BOND
     1     1     2 ar
     2     1     7 ar
     3     1    11 1
     4     2     3 ar
     5     3     4 ar
     6     3    12 1
     7     4     5 1
     8     4     6 ar
     9     6     7 ar
    10     6    13 1
    11     7     8 1
    12     8     9 2
    13     8    10 1
    14    10    14 1
    15    10    15 1
    16    16    10 1
@<TRIPOS>SUBSTRUCTURE
     1 BRT         1 TEMP              0 ****  ****    0 ROOT
