@<TRIPOS>MOLECULE
molecule
   18    18     1     0     0
SMALL
bcc


@<TRIPOS>ATOM
      1 C10          0.0000     0.0000     0.0000 c          1 BRV       0.889700
      2 C7           3.2870     0.0040    -3.7340 c          1 BRV       0.889700
      3 C5           3.7640     0.0000     0.0000 ca         1 BRV       0.177600
      4 C4           2.4500     0.0000     0.4450 ca         1 BRV      -0.031900
      5 C3           1.3980     0.0010    -0.4760 ca         1 BRV      -0.024600
      6 C2           1.6700     0.0030    -1.8430 ca         1 BRV       0.013100
      7 Br1          0.2510     0.0040    -3.0940 br         1 BRV      -0.092100
      8 Br3          5.8330    -0.0030    -1.9600 br         1 BRV      -0.140100
      9 C1           2.9930     0.0030    -2.2870 ca         1 BRV      -0.024600
     10 C6           4.0390    -0.0040    -1.3600 ca         1 BRV      -0.031900
     11 O8           3.4220    -1.1620    -4.3940 o          1 BRV      -0.831300
     12 O9           3.4080     1.0570    -4.3280 o          1 BRV      -0.831300
     13 O11         -0.5760     1.0510     0.1970 o          1 BRV      -0.831300
     14 O12         -0.6400    -1.1670     0.2090 o          1 BRV      -0.831300
     15 HN13         5.1900     0.8650     1.2560 hn         1 BRV       0.413300
     16 HN1A         5.1890    -0.8680     1.2550 hn         1 BRV       0.413300
     17 N13          4.8140    -0.0010     0.9250 nv         1 BRV      -0.983200
     18 Br2          2.0810    -0.0020     2.3000 br         1 BRV      -0.140100
@<TRIPOS>BOND
     1     1     5 1
     2     1    13 1
     3     1    14 1
     4     2     9 1
     5     2    11 1
     6     2    12 1
     7     3     4 ar
     8     3    17 1
     9     3    10 ar
    10     4     5 ar
    11     4    18 1
    12     5     6 ar
    13     6     7 1
    14     6     9 ar
    15     8    10 1
    16     9    10 ar
    17    17    15 1
    18    17    16 1
@<TRIPOS>SUBSTRUCTURE
     1 BRV         1 TEMP              0 ****  ****    0 ROOT
