@<TRIPOS>MOLECULE
BRW
   32    35     1     0     0
SMALL
bcc


@<TRIPOS>ATOM
      1 C1           0.0000     0.0000     0.0000 ca         1 BRW      -0.241900
      2 C2           1.4830     0.0000     0.0000 cc         1 BRW       0.463200
      3 C3          -0.4050    -0.0080     1.3400 ca         1 BRW      -0.136200
      4 N4           0.7120    -0.0050     2.1640 na         1 BRW       0.279600
      5 C5          -1.7650    -0.0140     1.6360 ca         1 BRW      -0.125000
      6 C7          -2.6960    -0.0170     0.6180 ca         1 BRW      -0.047000
      7 C9          -2.2910    -0.0140    -0.7070 ca         1 BRW      -0.140000
      8 C11         -0.9470    -0.0090    -1.0190 ca         1 BRW      -0.008000
      9 C13          1.8670     0.0000     1.4280 cc         1 BRW      -0.094700
     10 C14          3.1620     0.0040     1.9290 cd         1 BRW      -0.233400
     11 C15          3.5800     0.2380     3.3170 c          1 BRW       0.631700
     12 N16          4.9210     0.1520     3.3670 ns         1 BRW       0.016900
     13 C17          5.4570    -0.1230     2.1150 ca         1 BRW      -0.117400
     14 C18          4.4160    -0.2330     1.1830 ca         1 BRW      -0.058800
     15 C19          6.7690    -0.2980     1.6870 ca         1 BRW      -0.103000
     16 C20          7.0330    -0.5690     0.3600 ca         1 BRW       0.059100
     17 C21          6.0020    -0.6710    -0.5600 ca         1 BRW      -0.106000
     18 C22          4.6940    -0.5020    -0.1540 ca         1 BRW      -0.101000
     19 O23          2.8420     0.4680     4.2580 o          1 BRW      -0.697500
     20 N24          2.2760     0.0050    -1.0370 n2         1 BRW      -0.333200
     21 O39          1.7330     0.0040    -2.3450 oh         1 BRW      -0.365500
     22 Br21         8.8220    -0.8040    -0.2090 br         1 BRW      -0.141100
     23 H4           0.6790    -0.0070     3.1650 hn         1 BRW       0.162700
     24 H5          -2.0930    -0.0160     2.6690 ha         1 BRW       0.111000
     25 H7          -3.7530    -0.0210     0.8560 ha         1 BRW       0.105000
     26 H9          -3.0300    -0.0170    -1.4990 ha         1 BRW       0.111000
     27 H11         -0.6300    -0.0070    -2.0550 ha         1 BRW       0.117000
     28 H16          5.4630     0.2720     4.1990 hn         1 BRW       0.175500
     29 H19          7.5840    -0.2200     2.3970 ha         1 BRW       0.117000
     30 H21          6.2230    -0.8850    -1.5990 ha         1 BRW       0.115000
     31 H22          3.8870    -0.5820    -0.8720 ha         1 BRW       0.166000
     32 H39          2.3330     0.4300    -2.9340 ho         1 BRW       0.421000
@<TRIPOS>BOND
     1     1     2 1   
     2     1     3 ar  
     3     1     8 ar  
     4     2     9 1   
     5     2    20 2   
     6     3     4 1   
     7     3     5 ar  
     8     4     9 1   
     9     4    23 1   
    10     5     6 ar  
    11     5    24 1   
    12     6     7 ar  
    13     6    25 1   
    14     7     8 ar  
    15     7    26 1   
    16     8    27 1   
    17     9    10 2   
    18    10    11 1   
    19    10    14 1   
    20    11    12 1   
    21    11    19 2   
    22    12    13 1   
    23    12    28 1   
    24    13    14 ar  
    25    13    15 ar  
    26    14    18 ar  
    27    15    16 ar  
    28    15    29 1   
    29    16    17 ar  
    30    16    22 1   
    31    17    18 ar  
    32    17    30 1   
    33    18    31 1   
    34    20    21 1   
    35    21    32 1   
@<TRIPOS>SUBSTRUCTURE
     1 BRW         1 TEMP              0 ****  ****    0 ROOT
