@<TRIPOS>MOLECULE
molecule
   32    32     1     0     0
SMALL
bcc


@<TRIPOS>ATOM
      1 O2           0.0000     0.0000     0.0000 o          1 BRX      -0.587100
      2 C2           1.1730     0.0000     0.0000 c          1 BRX       0.692100
      3 N2           1.8730     0.0000     1.0930 ns         1 BRX      -0.549900
      4 C3           1.4490    -0.2400     2.4740 c3         1 BRX       0.146700
      5 C4           1.3120     1.0600     3.2060 c3         1 BRX       0.156400
      6 O4           2.7370     1.3440     3.2530 oh         1 BRX      -0.603800
      7 C5           1.7270    -1.5800     2.9360 c3         1 BRX       0.189400
      8 O5           3.1400    -1.4630     2.9900 oh         1 BRX      -0.580800
      9 C6           1.0350    -2.7650     2.6780 ca         1 BRX      -0.066300
     10 C11          1.8340    -3.7200     2.1260 ca         1 BRX      -0.113500
     11 C10          1.2170    -4.9650     1.6580 ca         1 BRX      -0.069000
     12 C9          -0.1520    -5.1240     1.7840 ca         1 BRX      -0.147200
     13 N9          -0.8000    -6.3720     1.3270 no         1 BRX       0.293200
     14 O9B         -2.0040    -6.5100     1.4420 o          1 BRX      -0.201500
     15 O9A         -0.1270    -7.2630     0.8370 o          1 BRX      -0.201500
     16 C8          -0.9150    -4.1190     2.3440 ca         1 BRX      -0.069000
     17 C7          -0.2950    -2.8700     2.7900 ca         1 BRX      -0.113500
     18 C1           1.6740    -0.1330    -1.3070 c3         1 BRX      -0.022900
     19 Br1          2.0830    -1.8710    -2.1260 br         1 BRX      -0.073400
     20 Br2          1.0150     1.1290    -2.6700 br         1 BRX      -0.073400
     21 H2           2.8480     0.1930     0.9740 hn         1 BRX       0.317500
     22 H1           2.6770     0.2450    -1.1520 h2         1 BRX       0.071700
     23 H3           0.3910    -0.3940     2.3030 h1         1 BRX       0.032700
     24 H41C         0.8930     0.9260     4.1950 h1         1 BRX       0.054200
     25 H42C         0.7720     1.7970     2.6240 h1         1 BRX       0.054200
     26 H5           1.4730    -1.4820     3.9840 h1         1 BRX       0.015700
     27 H4           2.8800     2.1610     3.7000 ho         1 BRX       0.388000
     28 HA           3.4600    -1.8780     3.7730 ho         1 BRX       0.397000
     29 H11          2.9030    -3.5660     2.0410 ha         1 BRX       0.161500
     30 H7          -0.8860    -2.0760     3.2310 ha         1 BRX       0.161500
     31 H10          1.8220    -5.7460     1.2140 ha         1 BRX       0.170000
     32 H8          -1.9880    -4.2460     2.4300 ha         1 BRX       0.170000
@<TRIPOS>BOND
     1     1     2 2
     2     2     3 1
     3     2    18 1
     4     3     4 1
     5     4     5 1
     6     4     7 1
     7     5     6 1
     8     7     8 1
     9     7     9 1
    10     9    10 ar
    11     9    17 ar
    12    10    11 ar
    13    11    12 ar
    14    12    13 1
    15    12    16 ar
    16    13    14 1
    17    13    15 1
    18    16    17 ar
    19    18    19 1
    20    18    20 1
    21     3    21 1
    22    18    22 1
    23     4    23 1
    24     5    24 1
    25     5    25 1
    26     7    26 1
    27     6    27 1
    28     8    28 1
    29    10    29 1
    30    17    30 1
    31    11    31 1
    32    16    32 1
@<TRIPOS>SUBSTRUCTURE
     1 BRX         1 TEMP              0 ****  ****    0 ROOT
