@<TRIPOS>MOLECULE
BRY
   30    33     1     0     0
SMALL
bcc


@<TRIPOS>ATOM
      1 C1           0.0000     0.0000     0.0000 ca         1 BRY      -0.269600
      2 C2           1.4740     0.0000     0.0000 c          1 BRY       0.652900
      3 C3          -0.4100     0.0080     1.3420 ca         1 BRY      -0.112200
      4 N4           0.7030     0.0070     2.1680 na         1 BRY       0.271600
      5 C5          -1.7710     0.0150     1.6310 ca         1 BRY      -0.139000
      6 C7          -2.6980     0.0130     0.6100 ca         1 BRY      -0.029000
      7 C9          -2.2910     0.0050    -0.7150 ca         1 BRY      -0.155000
      8 C11         -0.9470    -0.0010    -1.0250 ca         1 BRY       0.027000
      9 C13          1.8630     0.0000     1.4290 cc         1 BRY      -0.150300
     10 C14          3.1490    -0.0020     1.9270 cd         1 BRY      -0.170400
     11 C15          3.5710    -0.1810     3.3350 c          1 BRY       0.624700
     12 N16          4.9120    -0.1150     3.3750 ns         1 BRY       0.014900
     13 C17          5.4470     0.0970     2.1090 ca         1 BRY      -0.109400
     14 C18          4.4050     0.1750     1.1720 ca         1 BRY      -0.083800
     15 C19          6.7590     0.2300     1.6710 ca         1 BRY      -0.117000
     16 C20          7.0270     0.4360     0.3330 ca         1 BRY      -0.055000
     17 C21          5.9970     0.5120    -0.5890 ca         1 BRY       0.014100
     18 C22          4.6860     0.3880    -0.1750 ca         1 BRY      -0.061000
     19 O23          2.8340    -0.3580     4.2860 o          1 BRY      -0.684500
     20 O1           2.2140    -0.0010    -0.9660 o          1 BRY      -0.519100
     21 Br1          6.3860     0.7970    -2.4180 br         1 BRY      -0.129100
     22 H4           0.6670     0.0090     3.1690 hn         1 BRY       0.161700
     23 H5          -2.1030     0.0210     2.6620 ha         1 BRY       0.112000
     24 H7          -3.7560     0.0180     0.8460 ha         1 BRY       0.104000
     25 H9          -3.0300     0.0040    -1.5070 ha         1 BRY       0.112000
     26 H11         -0.6290    -0.0070    -2.0610 ha         1 BRY       0.111000
     27 H16          5.4560    -0.2050     4.2100 hn         1 BRY       0.177500
     28 H19          7.5740     0.1720     2.3830 ha         1 BRY       0.108000
     29 H20          8.0540     0.5350     0.0000 ha         1 BRY       0.115000
     30 H22          3.8790     0.4470    -0.8970 ha         1 BRY       0.178000
@<TRIPOS>BOND
     1     1     2 1   
     2     1     3 ar  
     3     1     8 ar  
     4     2     9 1   
     5     2    20 2   
     6     3     4 1   
     7     3     5 ar  
     8     4     9 1   
     9     4    22 1   
    10     5     6 ar  
    11     5    23 1   
    12     6     7 ar  
    13     6    24 1   
    14     7     8 ar  
    15     7    25 1   
    16     8    26 1   
    17     9    10 2   
    18    10    11 1   
    19    10    14 1   
    20    11    12 1   
    21    11    19 2   
    22    12    13 1   
    23    12    27 1   
    24    13    14 ar  
    25    13    15 ar  
    26    14    18 ar  
    27    15    16 ar  
    28    15    28 1   
    29    16    17 ar  
    30    16    29 1   
    31    17    18 ar  
    32    17    21 1   
    33    18    30 1   
@<TRIPOS>SUBSTRUCTURE
     1 BRY         1 TEMP              0 ****  ****    0 ROOT
