@<TRIPOS>MOLECULE
BRZ
   45    47     1     0     0
SMALL
bcc


@<TRIPOS>ATOM
      1 C1          0.1000   -0.2220    0.0070 ca        1 BRZ     -0.187800
      2 C2          1.5060   -0.3720   -0.0080 ca        1 BRZ     -0.029000
      3 C3          2.1790   -0.4490    1.1870 ca        1 BRZ     -0.179300
      4 C4          1.4590   -0.3780    2.4190 ca        1 BRZ      0.158100
      5 C5          0.0870   -0.2330    2.4830 ca        1 BRZ     -0.177000
      6 C6         -0.5800   -0.1570    1.2390 ca        1 BRZ      0.183100
      7 O7         -1.9460   -0.0150    1.3100 os        1 BRZ     -0.323200
      8 C8         -2.6920    0.0660    0.1290 c         1 BRZ      0.728800
      9 C9         -2.0150    0.0150   -1.1680 cc        1 BRZ     -0.190400
     10 C10        -0.6680   -0.1320   -1.2060 cd        1 BRZ     -0.010200
     11 O11         2.2830   -0.4750    3.5240 os        1 BRZ     -0.313900
     12 C12         3.6590   -0.6240    3.0450 c3        1 BRZ      0.145100
     13 C13         3.6270   -0.6070    1.5010 c3        1 BRZ     -0.040100
     14 O14        -3.8870    0.1720    0.4060 o         1 BRZ     -0.571500
     15 C15        -2.8690    0.1150   -2.4060 c3        1 BRZ      0.039400
     16 C16        -3.8360   -1.0650   -2.4440 c3        1 BRZ     -0.094600
     17 C17        -3.6790    1.4140   -2.3720 c3        1 BRZ     -0.094600
     18 C18        -2.0020    0.1600   -3.6310 c2        1 BRZ     -0.169200
     19 C19        -1.9220   -0.7800   -4.5690 c2        1 BRZ     -0.214000
     20 C20         4.5110    0.4950    3.6760 c3        1 BRZ      0.142800
     21 O21         5.7940    0.3590    3.0580 oh        1 BRZ     -0.603800
     22 C22         4.6230    0.2600    5.1780 c3        1 BRZ     -0.124600
     23 C23         3.9430    1.8800    3.4030 c3        1 BRZ     -0.124600
     24 HC2         2.0360   -0.4250   -0.9700 ha        1 BRZ      0.144000
     25 HC5        -0.4680   -0.1810    3.4280 ha        1 BRZ      0.176000
     26 HC10       -0.1170   -0.1900   -2.1600 ha        1 BRZ      0.152000
     27 HC12        4.0030   -1.6180    3.4360 h1        1 BRZ      0.080700
     28 HC11        4.2430    0.2360    1.0980 hc        1 BRZ      0.077200
     29 HC1A        4.0380   -1.5630    1.0930 hc        1 BRZ      0.077200
     30 HC61       -4.5150   -1.0290   -1.5560 hc        1 BRZ      0.047200
     31 HC62       -3.2790   -2.0320   -2.4290 hc        1 BRZ      0.047200
     32 HC63       -4.4550   -1.0180   -3.3710 hc        1 BRZ      0.047200
     33 HC71       -4.3780    1.4100   -1.5010 hc        1 BRZ      0.047200
     34 HC72       -2.9990    2.2950   -2.2870 hc        1 BRZ      0.047200
     35 HC73       -4.2740    1.5080   -3.3120 hc        1 BRZ      0.047200
     36 HC18       -1.4190    1.0930   -3.7230 ha        1 BRZ      0.119000
     37 HC91       -2.4830   -1.7240   -4.5330 ha        1 BRZ      0.115500
     38 HC92       -1.2800   -0.6610   -5.4520 ha        1 BRZ      0.115500
     39 HO21        6.3690    1.0090    3.4790 ho        1 BRZ      0.408000
     40 HC21        5.1760    1.0990    5.6620 hc        1 BRZ      0.050367
     41 HC22        3.6000    0.1920    5.6210 hc        1 BRZ      0.050367
     42 HC23        5.1710   -0.6920    5.3770 hc        1 BRZ      0.050367
     43 HC31        2.8980    1.9400    3.7890 hc        1 BRZ      0.050367
     44 HC32        3.9400    2.0890    2.3070 hc        1 BRZ      0.050367
     45 HC33        4.5640    2.6560    3.9110 hc        1 BRZ      0.050367
@<TRIPOS>BOND
     1    1    2 ar
     2    1    6 ar
     3    1   10 1
     4    2    3 ar
     5    2   24 1
     6    3    4 ar
     7    3   13 1
     8    4    5 ar
     9    4   11 1
    10    5    6 ar
    11    5   25 1
    12    6    7 1
    13    7    8 1
    14    8    9 1
    15    8   14 2
    16    9   10 2
    17    9   15 1
    18   10   26 1
    19   11   12 1
    20   12   13 1
    21   12   20 1
    22   12   27 1
    23   13   28 1
    24   13   29 1
    25   15   16 1
    26   15   17 1
    27   15   18 1
    28   16   30 1
    29   16   31 1
    30   16   32 1
    31   17   33 1
    32   17   34 1
    33   17   35 1
    34   18   19 2
    35   18   36 1
    36   19   37 1
    37   19   38 1
    38   20   21 1
    39   20   22 1
    40   20   23 1
    41   21   39 1
    42   22   40 1
    43   22   41 1
    44   22   42 1
    45   23   43 1
    46   23   44 1
    47   23   45 1
@<TRIPOS>SUBSTRUCTURE
     1 BRZ         1 TEMP              0 ****  ****    0 ROOT
