@<TRIPOS>MOLECULE
BS1
   56    60     1     0     0
SMALL
bcc


@<TRIPOS>ATOM
      1 C17          0.0000     0.0000     0.0000 c3         1 BS1       0.005600
      2 N1           1.4690     0.0000     0.0000 n4         1 BS1       0.026200
      3 C16          1.9860     1.1550    -0.7470 c3         1 BS1       0.005600
      4 C3           1.9930     0.0000     1.3920 c3         1 BS1       0.000000
      5 C12          1.8090    -1.4600     1.8670 c3         1 BS1      -0.042400
      6 C13          1.8080    -2.3000     0.5730 c3         1 BS1      -0.042400
      7 C2           1.9920    -1.2690    -0.5710 c3         1 BS1       0.000000
      8 C8           3.5030     0.2810     1.3100 c3         1 BS1      -0.082900
      9 C6           4.1810    -0.8730     0.5640 c3         1 BS1       0.152100
     10 C7           3.5010    -1.0810    -0.7940 c3         1 BS1      -0.082900
     11 O1           5.5610    -0.5590     0.3610 os         1 BS1      -0.390600
     12 C1           6.4460    -1.6560     0.5960 c3         1 BS1       0.297700
     13 C5           6.1130    -2.6820    -0.4160 ca         1 BS1      -0.121800
     14 C19          6.3010    -2.2170    -1.7340 ca         1 BS1      -0.103000
     15 C23          6.1040    -3.0350    -2.8190 ca         1 BS1      -0.101500
     16 C26          5.7240    -4.3480    -2.6010 ca         1 BS1      -0.083500
     17 C21          5.5240    -4.7790    -1.3150 ca         1 BS1      -0.121500
     18 C9           5.6870    -3.9220    -0.2020 ca         1 BS1      -0.066300
     19 C15          5.2380    -4.6380     1.0520 c3         1 BS1       0.033400
     20 C14          6.1300    -4.4470     2.2390 c3         1 BS1       0.033400
     21 C10          6.2580    -3.0150     2.7170 ca         1 BS1      -0.066300
     22 C22          6.1660    -2.9750     4.1270 ca         1 BS1      -0.121500
     23 C25          6.3400    -1.8130     4.8330 ca         1 BS1      -0.083500
     24 C24          6.6250    -0.6460     4.1460 ca         1 BS1      -0.101500
     25 C18          6.6750    -0.6830     2.7770 ca         1 BS1      -0.103000
     26 C4           6.4530    -1.8770     2.0570 ca         1 BS1      -0.121800
     27 H171        -0.3610     0.8980     0.4870 hx         1 BS1       0.075367
     28 H172        -0.3610    -0.0280    -1.0210 hx         1 BS1       0.075367
     29 H173        -0.3610    -0.8700     0.5340 hx         1 BS1       0.075367
     30 H161         1.6880     1.0760    -1.7860 hx         1 BS1       0.075367
     31 H162         3.0670     1.1730    -0.6820 hx         1 BS1       0.075367
     32 H163         1.5830     2.0680    -0.3250 hx         1 BS1       0.075367
     33 H3           1.4750     0.7080     2.0270 hx         1 BS1       0.090200
     34 H2           1.4720    -1.5590    -1.4760 hx         1 BS1       0.090200
     35 H121         0.8660    -1.5700     2.3880 hc         1 BS1       0.058700
     36 H122         2.6320    -1.7550     2.5060 hc         1 BS1       0.058700
     37 H81C         3.6720     1.2080     0.7750 hc         1 BS1       0.066450
     38 H82C         3.9130     0.3580     2.3100 hc         1 BS1       0.066450
     39 H131         2.6300    -3.0050     0.5800 hc         1 BS1       0.058700
     40 H132         0.8650    -2.8210     0.4620 hc         1 BS1       0.058700
     41 H71C         3.9100    -1.9620    -1.2740 hc         1 BS1       0.066450
     42 H72C         3.6700    -0.2140    -1.4220 hc         1 BS1       0.066450
     43 H6           4.1000    -1.7800     1.1510 h1         1 BS1       0.055700
     44 H1           7.4430    -1.3130     0.3470 h1         1 BS1       0.060700
     45 H19          6.5980    -1.1880    -1.8950 ha         1 BS1       0.117500
     46 H23          6.2700    -2.6680    -3.8240 ha         1 BS1       0.115000
     47 H26          5.5610    -5.0180    -3.4360 ha         1 BS1       0.114500
     48 H21          5.2270    -5.8070    -1.1470 ha         1 BS1       0.115500
     49 H151         5.2040    -5.6980     0.8320 hc         1 BS1       0.027700
     50 H152         4.2570    -4.2610     1.3130 hc         1 BS1       0.027700
     51 H141         7.1200    -4.7920     1.9660 hc         1 BS1       0.027700
     52 H142         5.7220    -5.0310     3.0550 hc         1 BS1       0.027700
     53 H22          5.9420    -3.8880     4.6650 ha         1 BS1       0.115500
     54 H25          6.2930    -1.8160     5.9150 ha         1 BS1       0.114500
     55 H24          6.7670     0.2870     4.6790 ha         1 BS1       0.115000
     56 H18          6.8980     0.2270     2.2330 ha         1 BS1       0.117500
@<TRIPOS>BOND
     1     1     2 1   
     2     1    27 1   
     3     1    28 1   
     4     1    29 1   
     5     2     3 1   
     6     2     4 1   
     7     2     7 1   
     8     3    30 1   
     9     3    31 1   
    10     3    32 1   
    11     4     5 1   
    12     4     8 1   
    13     4    33 1   
    14     5     6 1   
    15     5    35 1   
    16     5    36 1   
    17     6     7 1   
    18     6    39 1   
    19     6    40 1   
    20     7    10 1   
    21     7    34 1   
    22     8     9 1   
    23     8    37 1   
    24     8    38 1   
    25     9    10 1   
    26     9    11 1   
    27     9    43 1   
    28    10    41 1   
    29    10    42 1   
    30    11    12 1   
    31    12    13 1   
    32    12    26 1   
    33    12    44 1   
    34    13    14 ar  
    35    13    18 ar  
    36    14    15 ar  
    37    14    45 1   
    38    15    16 ar  
    39    15    46 1   
    40    16    17 ar  
    41    16    47 1   
    42    17    18 ar  
    43    17    48 1   
    44    18    19 1   
    45    19    20 1   
    46    19    49 1   
    47    19    50 1   
    48    20    21 1   
    49    20    51 1   
    50    20    52 1   
    51    21    22 ar  
    52    21    26 ar  
    53    22    23 ar  
    54    22    53 1   
    55    23    24 ar  
    56    23    54 1   
    57    24    25 ar  
    58    24    55 1   
    59    25    26 ar  
    60    25    56 1   
@<TRIPOS>SUBSTRUCTURE
     1 BS1         1 TEMP              0 ****  ****    0 ROOT
