@<TRIPOS>MOLECULE
molecule
   63    68     1     0     0
SMALL
bcc


@<TRIPOS>ATOM
      1 CAY          0.0000     0.0000     0.0000 ca         1 BS2      -0.110300
      2 CAL          1.4110     0.0000     0.0000 ca         1 BS2      -0.135000
      3 CAF          2.1300     0.0000     1.1700 ca         1 BS2      -0.129000
      4 CAD          1.4430    -0.0000     2.3700 ca         1 BS2      -0.112000
      5 CAJ          0.0740    -0.0250     2.3550 ca         1 BS2      -0.135500
      6 CAW         -0.6640    -0.0520     1.1470 ca         1 BS2      -0.055300
      7 CAN         -2.1360    -0.1990     1.4660 c3         1 BS2      -0.033100
      8 CAO         -3.0400     0.6880     0.6680 c3         1 BS2      -0.033100
      9 CAX         -3.0020     0.4530    -0.8270 ca         1 BS2      -0.055300
     10 CAK         -4.3230     0.4190    -1.3310 ca         1 BS2      -0.135500
     11 CAE         -4.5870     0.2800    -2.6690 ca         1 BS2      -0.112000
     12 CAG         -3.5310     0.1840    -3.5570 ca         1 BS2      -0.129000
     13 CAM         -2.2510     0.1960    -3.0610 ca         1 BS2      -0.135000
     14 CAZ         -1.9940     0.2960    -1.6780 ca         1 BS2      -0.110300
     15 CBD         -0.5580     0.1200    -1.3660 c3         1 BS2       0.227700
     16 OAU         -0.1320    -1.0430    -2.0780 os         1 BS2      -0.428600
     17 CBA         -0.6700    -2.2660    -1.5700 c3         1 BS2       0.135100
     18 CAT          0.4650    -3.1270    -1.0080 c3         1 BS2      -0.112400
     19 CAS         -1.3790    -3.0180    -2.6980 c3         1 BS2      -0.112400
     20 CBB         -0.3350    -3.4540    -3.7390 c3         1 BS2       0.119500
     21 CAP          0.5600    -2.2320    -4.0510 c3         1 BS2      -0.093400
     22 CAQ          1.6960    -2.2990    -3.0090 c3         1 BS2      -0.093400
     23 CBC          1.3830    -3.5550    -2.1630 c3         1 BS2       0.119500
     24 NBE          0.5790    -4.4160    -3.0700 nx         1 BS2      -0.661400
     25 CAR          1.4440    -5.0790    -4.0550 c3         1 BS2       0.167100
     26 CAV          2.2720    -6.1340    -3.3680 ca         1 BS2      -0.175300
     27 CAH          1.7940    -7.4270    -3.2610 ca         1 BS2      -0.109000
     28 CAB          2.5540    -8.3940    -2.6310 ca         1 BS2      -0.114000
     29 CAA          3.7910    -8.0690    -2.1070 ca         1 BS2      -0.085000
     30 CAC          4.2700    -6.7770    -2.2160 ca         1 BS2      -0.114000
     31 CAI          3.5130    -5.8100    -2.8490 ca         1 BS2      -0.109000
     32 HAL          1.9400     0.0000    -0.9450 ha         1 BS2       0.129500
     33 HBD         -0.0530     0.9660    -1.8170 h1         1 BS2       0.096700
     34 HAF          3.2130     0.0200     1.1530 ha         1 BS2       0.140000
     35 HAD          1.9810    -0.0000     3.3100 ha         1 BS2       0.144500
     36 HAJ         -0.4610    -0.0250     3.2970 ha         1 BS2       0.140000
     37 HAN1        -2.4170    -1.2250     1.2620 hc         1 BS2       0.061700
     38 HAN2        -2.2730     0.0450     2.5120 hc         1 BS2       0.061700
     39 HAO1        -4.0550     0.5130     1.0030 hc         1 BS2       0.061700
     40 HAO2        -2.7400     1.7130     0.8480 hc         1 BS2       0.061700
     41 HAK         -5.1520     0.4940    -0.6380 ha         1 BS2       0.140000
     42 HAE         -5.6090     0.2740    -3.0280 ha         1 BS2       0.144500
     43 HAG         -3.7120     0.0740    -4.6190 ha         1 BS2       0.140000
     44 HAM         -1.4180     0.1210    -3.7500 ha         1 BS2       0.129500
     45 HBA         -1.3800    -2.0460    -0.7810 h1         1 BS2       0.089700
     46 HAT1         1.0330    -2.5530    -0.2850 hc         1 BS2       0.084700
     47 HAT2         0.0500    -4.0060    -0.5280 hc         1 BS2       0.084700
     48 HAS1        -1.8770    -3.8920    -2.2950 hc         1 BS2       0.084700
     49 HAS2        -2.1090    -2.3680    -3.1660 hc         1 BS2       0.084700
     50 HBC          2.2810    -4.0500    -1.8140 hx         1 BS2       0.114200
     51 HBB         -0.7890    -3.8700    -4.6310 hx         1 BS2       0.114200
     52 HAP1         0.9640    -2.3070    -5.0540 hc         1 BS2       0.092450
     53 HAP2        -0.0030    -1.3140    -3.9380 hc         1 BS2       0.092450
     54 HAQ1         1.6880    -1.4130    -2.3860 hc         1 BS2       0.092450
     55 HAQ2         2.6550    -2.4060    -3.5020 hc         1 BS2       0.092450
     56 HAR1         2.0990    -4.3460    -4.5110 hx         1 BS2       0.101200
     57 HAR2         0.8320    -5.5410    -4.8200 hx         1 BS2       0.101200
     58 HAH          0.8250    -7.6810    -3.6720 ha         1 BS2       0.134500
     59 HAI          3.8880    -4.7970    -2.9340 ha         1 BS2       0.134500
     60 HAB          2.1800    -9.4070    -2.5460 ha         1 BS2       0.154500
     61 HAA          4.3860    -8.8270    -1.6120 ha         1 BS2       0.156000
     62 HAC          5.2400    -6.5230    -1.8070 ha         1 BS2       0.154500
     63 HBE          0.0580    -5.0910    -2.5450 hn         1 BS2       0.445800
@<TRIPOS>BOND
     1     1     2 ar
     2     1     6 ar
     3     1    15 1
     4     2     3 ar
     5     3     4 ar
     6     4     5 ar
     7     5     6 ar
     8     6     7 1
     9     7     8 1
    10     8     9 1
    11     9    10 ar
    12     9    14 ar
    13    10    11 ar
    14    11    12 ar
    15    12    13 ar
    16    13    14 ar
    17    14    15 1
    18    15    16 1
    19    16    17 1
    20    17    18 1
    21    17    19 1
    22    18    23 1
    23    19    20 1
    24    20    21 1
    25    20    24 1
    26    21    22 1
    27    22    23 1
    28    23    24 1
    29    24    25 1
    30    25    26 1
    31    26    27 ar
    32    26    31 ar
    33    27    28 ar
    34    28    29 ar
    35    29    30 ar
    36    30    31 ar
    37     2    32 1
    38    15    33 1
    39     3    34 1
    40     4    35 1
    41     5    36 1
    42     7    37 1
    43     7    38 1
    44     8    39 1
    45     8    40 1
    46    10    41 1
    47    11    42 1
    48    12    43 1
    49    13    44 1
    50    17    45 1
    51    18    46 1
    52    18    47 1
    53    19    48 1
    54    19    49 1
    55    23    50 1
    56    20    51 1
    57    21    52 1
    58    21    53 1
    59    22    54 1
    60    22    55 1
    61    25    56 1
    62    25    57 1
    63    27    58 1
    64    31    59 1
    65    28    60 1
    66    29    61 1
    67    30    62 1
    68    24    63 1
@<TRIPOS>SUBSTRUCTURE
     1 BS2         1 TEMP              0 ****  ****    0 ROOT
