@<TRIPOS>MOLECULE
molecule
   31    32     1     0     0
SMALL
bcc


@<TRIPOS>ATOM
      1 NAA          0.0000     0.0000     0.0000 nv         1 BS4      -0.989200
      2 OAB          4.0200     0.4910     5.5920 o          1 BS4      -0.605100
      3 OAC          6.2600    -0.3270     2.0280 o          1 BS4      -0.585800
      4 OAD          5.2210    -1.1590     3.8600 o          1 BS4      -0.585800
      5 CAE          6.8300     2.6900     7.3870 ca         1 BS4      -0.118000
      6 CAF          5.7920     1.8220     7.6810 ca         1 BS4      -0.106500
      7 CAG          7.2310     2.8720     6.0740 ca         1 BS4      -0.106500
      8 CAH          5.1540     1.1360     6.6600 ca         1 BS4      -0.342000
      9 CAI          6.5930     2.1860     5.0530 ca         1 BS4      -0.342000
     10 CAJ          2.4130     0.0000     0.0000 ca         1 BS4      -0.172000
     11 CAK          1.2170    -0.0030     2.0850 ca         1 BS4      -0.172000
     12 CAL          3.6090     0.0000     0.6900 ca         1 BS4      -0.025000
     13 CAM          2.4150    -0.0030     2.7700 ca         1 BS4      -0.025000
     14 NAN          5.5810     1.1770     4.0680 ns         1 BS4      -0.817300
     15 CAO          4.8780     1.2660     5.3350 c          1 BS4       0.839700
     16 CAP          1.2120    -0.0010     0.6950 ca         1 BS4       0.224600
     17 CAQ          5.5550     1.3170     5.3470 ca         1 BS4       0.297400
     18 CAR          3.6110    -0.0020     2.0740 ca         1 BS4      -0.262500
     19 SAS          5.1480    -0.0260     2.9340 sy         1 BS4       1.156900
     20 HNAA        -0.5560    -0.8310    -0.0380 hn         1 BS4       0.434800
     21 HNAB        -0.3230     0.8380    -0.4410 hn         1 BS4       0.434800
     22 HAE          7.3290     3.2270     8.1850 ha         1 BS4       0.140000
     23 HAF          5.4780     1.6800     8.7080 ha         1 BS4       0.137500
     24 HAG          8.0440     3.5510     5.8440 ha         1 BS4       0.137500
     25 HAH          4.3410     0.4570     6.8900 ha         1 BS4       0.226000
     26 HAI          6.9070     2.3280     4.0260 ha         1 BS4       0.226000
     27 HAJ          2.4120     0.0020    -1.0830 ha         1 BS4       0.144000
     28 HAK          0.2810    -0.0040     2.6320 ha         1 BS4       0.144000
     29 HAL          4.5470     0.0010     0.1480 ha         1 BS4       0.157500
     30 HAM          2.4210    -0.0050     3.8530 ha         1 BS4       0.157500
     31 HNAN         6.3440     1.7940     3.8750 hn         1 BS4       0.396500
@<TRIPOS>BOND
     1     1    16 1
     2     2    15 2
     3     3    19 2
     4     4    19 2
     5     5     6 ar
     6     5     7 ar
     7     6     8 ar
     8     7     9 ar
     9     8    17 ar
    10     9    17 ar
    11    10    12 ar
    12    10    16 ar
    13    11    13 ar
    14    11    16 ar
    15    12    18 ar
    16    13    18 ar
    17    14    15 1
    18    14    19 1
    19    15    17 1
    20    18    19 1
    21     1    20 1
    22     1    21 1
    23     5    22 1
    24     6    23 1
    25     7    24 1
    26     8    25 1
    27     9    26 1
    28    10    27 1
    29    11    28 1
    30    12    29 1
    31    13    30 1
    32    14    31 1
@<TRIPOS>SUBSTRUCTURE
     1 BS4         1 TEMP              0 ****  ****    0 ROOT
