@<TRIPOS>MOLECULE
BS4
   32    32     1     0     0
SMALL
bcc


@<TRIPOS>ATOM
      1 NAA         0.0350   -0.2050   -0.1930 nh        1 BS4     -0.790200
      2 OAB         3.3040    1.8450    4.8270 o         1 BS4     -0.533100
      3 OAC         6.1280   -0.4720    2.0520 o         1 BS4     -0.445900
      4 OAD         4.9180   -1.0330    4.0210 o         1 BS4     -0.445900
      5 CAE         7.0960    2.6910    8.0490 ca        1 BS4     -0.073000
      6 CAF         5.9110    1.9720    8.2060 ca        1 BS4     -0.129000
      7 CAG         7.4520    3.1870    6.7930 ca        1 BS4     -0.129000
      8 CAH         5.0820    1.7430    7.1090 ca        1 BS4     -0.074000
      9 CAI         6.6340    2.9580    5.6900 ca        1 BS4     -0.074000
     10 CAJ         2.4630   -0.1980   -0.1690 ca        1 BS4     -0.240000
     11 CAK         1.1960   -0.4020    1.9300 ca        1 BS4     -0.240000
     12 CAL         3.6230   -0.2720    0.5440 ca        1 BS4      0.077000
     13 CAM         2.3740   -0.4750    2.6140 ca        1 BS4      0.077000
     14 NAN         5.0850    1.7540    3.4040 n         1 BS4     -0.721000
     15 CAO         4.5320    1.9680    4.7180 c         1 BS4      0.646700
     16 CAP         1.1870   -0.2670    0.4980 ca        1 BS4      0.329600
     17 CAQ         5.4480    2.2260    5.8440 ca        1 BS4     -0.184600
     18 CAR         3.6490   -0.4290    1.9650 ca        1 BS4     -0.713500
     19 SAS         4.9590   -0.5640    2.7470 s4        1 BS4      1.688300
     20 HNAA       -0.8420   -0.2540    0.2750 hn        1 BS4      0.464800
     21 HNAB        0.0380   -0.1120   -1.1830 hn        1 BS4      0.464800
     22 HAE         7.7490    2.8730    8.9170 ha        1 BS4      0.156000
     23 HAF         5.6240    1.5870    9.1970 ha        1 BS4      0.156500
     24 HAG         8.3820    3.7660    6.6740 ha        1 BS4      0.156500
     25 HAH         4.1380    1.1870    7.2280 ha        1 BS4      0.144000
     26 HAI         6.9230    3.3820    4.7170 ha        1 BS4      0.144000
     27 HAJ         2.4960   -0.0870   -1.2660 ha        1 BS4      0.172000
     28 HAK         0.2400   -0.4420    2.4780 ha        1 BS4      0.172000
     29 HAL         4.5930   -0.2210    0.0090 ha        1 BS4      0.172000
     30 HAM         2.3560   -0.5620    3.7200 ha        1 BS4      0.172000
     31 HNAN        4.5380    2.2160    2.6970 hn        1 BS4      0.301500
     32 HAN2        6.0490    2.0300    3.3380 hn        1 BS4      0.301500
@<TRIPOS>BOND
     1    1   16 1   
     2    1   20 1   
     3    1   21 1   
     4    2   15 2   
     5    3   19 1   
     6    4   19 1   
     7    5    6 ar  
     8    5    7 ar  
     9    5   22 1   
    10    6    8 ar  
    11    6   23 1   
    12    7    9 ar  
    13    7   24 1   
    14    8   17 ar  
    15    8   25 1   
    16    9   17 ar  
    17    9   26 1   
    18   10   12 ar  
    19   10   16 ar  
    20   10   27 1   
    21   11   13 ar  
    22   11   16 ar  
    23   11   28 1   
    24   12   18 ar  
    25   12   29 1   
    26   13   18 ar  
    27   13   30 1   
    28   14   15 1   
    29   14   31 1   
    30   14   32 1   
    31   15   17 1   
    32   18   19 1   
@<TRIPOS>SUBSTRUCTURE
     1 BS4         1 TEMP              0 ****  ****    0 ROOT
