@<TRIPOS>MOLECULE
BS5
   67    71     1     0     0
SMALL
bcc


@<TRIPOS>ATOM
      1 S            0.0000     0.0000     0.0000 s6         1 BS5       1.117500
      2 N1          10.2200     1.4050     3.1890 nb         1 BS5      -0.744000
      3 C2          10.0900     0.5850     2.1620 ca         1 BS5       0.690900
      4 N3           8.9150     0.2170     1.6960 nb         1 BS5      -0.670000
      5 C4           7.7950     0.6680     2.2510 ca         1 BS5       0.279800
      6 C5           7.8790     1.5440     3.3460 ca         1 BS5      -0.246200
      7 C6           9.1550     1.9070     3.8080 ca         1 BS5       0.591200
      8 N6           9.3020     2.7660     4.8840 nv         1 BS5      -0.482500
      9 N7           6.6110     1.8450     3.7160 nc         1 BS5      -0.497100
     10 C8           5.7740     1.2250     2.9360 cd         1 BS5       0.245700
     11 N9           6.4550     0.4860     2.0150 na         1 BS5       0.208000
     12 C1'          5.8620    -0.3440     0.9750 c3         1 BS5       0.159800
     13 N1B         -1.7610     6.7790     9.2320 ns         1 BS5      -0.211900
     14 S1B         -2.5390     3.7180     8.1840 ss         1 BS5      -0.398200
     15 C2'          5.7450    -1.8190     1.4360 c3         1 BS5       0.129100
     16 O2'          6.9600    -2.5290     1.1860 oh         1 BS5      -0.533800
     17 C2B         -0.7050     3.6740     8.0690 c3         1 BS5       0.065400
     18 N2B         -0.2130     6.0620     7.7730 ns         1 BS5      -0.217900
     19 C3'          4.6000    -2.3490     0.5400 c3         1 BS5       0.127100
     20 O3'          5.1300    -3.0410    -0.5920 oh         1 BS5      -0.548800
     21 C3B         -1.0730     7.0320     8.1110 c          1 BS5       0.622500
     22 O3B         -1.2170     8.0480     7.4580 o          1 BS5      -0.721500
     23 C4'          3.8510    -1.0780     0.0930 c3         1 BS5       0.149100
     24 O4'          4.4930     0.0410     0.7270 os         1 BS5      -0.400600
     25 C4B         -0.2900     4.9820     8.7690 c3         1 BS5       0.010700
     26 C5'          2.3880    -1.1500     0.5350 c3         1 BS5       0.221800
     27 N5'          1.6550     0.0000     0.0000 n7         1 BS5      -0.576100
     28 C5B         -1.3470     5.4720     9.7660 c3         1 BS5       0.008700
     29 C6B         -2.5710     4.5400     9.8290 c3         1 BS5       0.088700
     30 C7B         -0.2520     3.6740     6.6080 c3         1 BS5      -0.017400
     31 C8B         -0.6840     2.3660     5.9400 c3         1 BS5      -0.035400
     32 C9B         -0.2320     2.3660     4.4790 c3         1 BS5      -0.016400
     33 CAB         -0.6630     1.0580     3.8110 c3         1 BS5      -0.099400
     34 CBB         -0.2180     1.0580     2.3720 c          1 BS5       0.641100
     35 NBB         -0.4900     0.0000     1.5830 ns         1 BS5      -0.323300
     36 OCB          0.3850     2.0100     1.9240 o          1 BS5      -0.590100
     37 OP1         -0.4010     1.2500    -0.5440 o          1 BS5      -0.564800
     38 OP2         -0.4020    -1.2500    -0.5440 o          1 BS5      -0.564800
     39 H2          10.9840     0.1990     1.6870 h5         1 BS5      -0.003900
     40 HN6          8.4930     3.1340     5.3440 hn         1 BS5       0.276300
     41 HN6A        10.2170     3.0200     5.2010 hn         1 BS5       0.276300
     42 H8           4.6950     1.2880     3.0080 h5         1 BS5       0.039800
     43 H1'          6.4350    -0.2830     0.0570 h2         1 BS5       0.072700
     44 H2'          5.4680    -1.8720     2.4820 h1         1 BS5       0.020700
     45 HO2'         7.0100    -3.2770     1.7580 ho         1 BS5       0.390000
     46 H2B         -0.3100     2.8160     8.6000 h1         1 BS5       0.058700
     47 HN2B         0.3860     6.0710     6.9710 hn         1 BS5       0.223500
     48 H3'          3.9420    -2.9930     1.1110 h1         1 BS5       0.012700
     49 HO3'         4.7370    -3.8960    -0.6500 ho         1 BS5       0.392000
     50 H4'          3.9140    -0.9750    -0.9840 h1         1 BS5       0.053700
     51 H4B          0.6660     4.8590     9.2640 h1         1 BS5       0.039700
     52 H5'          2.3380    -1.1420     1.6180 h1         1 BS5       0.017700
     53 H5'A         1.9420    -2.0630     0.1600 h1         1 BS5       0.017700
     54 HN5'         2.1550     0.7690    -0.4000 hn         1 BS5       0.374800
     55 H5B         -0.9100     5.5900    10.7500 h1         1 BS5       0.038700
     56 H6B         -3.4820     5.1120     9.9530 h1         1 BS5       0.054700
     57 H6BA        -2.4560     3.8110    10.6230 h1         1 BS5       0.054700
     58 H7B          0.8270     3.7630     6.5640 hc         1 BS5       0.035200
     59 H7BA        -0.7040     4.5110     6.0890 hc         1 BS5       0.035200
     60 H8B         -1.7620     2.2770     5.9840 hc         1 BS5       0.023700
     61 H8BA        -0.2310     1.5290     6.4580 hc         1 BS5       0.023700
     62 H9B          0.8470     2.4550     4.4350 hc         1 BS5       0.032700
     63 H9BA        -0.6840     3.2030     3.9610 hc         1 BS5       0.032700
     64 HAB         -1.7420     0.9700     3.8550 hc         1 BS5       0.032200
     65 HABA        -0.2110     0.2220     4.3300 hc         1 BS5       0.032200
     66 HNBB        -1.0240    -0.7670     1.9410 hn         1 BS5       0.232500
     67 HN1B        -2.4460     7.3830     9.6410 hn         1 BS5       0.215500
@<TRIPOS>BOND
     1     1    27 1   
     2     1    35 1   
     3     1    37 2   
     4     1    38 2   
     5     2     3 ar  
     6     2     7 ar  
     7     3     4 ar  
     8     3    39 1   
     9     4     5 ar  
    10     5     6 ar  
    11     5    11 1   
    12     6     7 ar  
    13     6     9 1   
    14     7     8 1   
    15     8    40 1   
    16     8    41 1   
    17     9    10 2   
    18    10    11 1   
    19    10    42 1   
    20    11    12 1   
    21    12    15 1   
    22    12    24 1   
    23    12    43 1   
    24    13    21 1   
    25    13    28 1   
    26    13    67 1   
    27    14    17 1   
    28    14    29 1   
    29    15    16 1   
    30    15    19 1   
    31    15    44 1   
    32    16    45 1   
    33    17    25 1   
    34    17    30 1   
    35    17    46 1   
    36    18    21 1   
    37    18    25 1   
    38    18    47 1   
    39    19    20 1   
    40    19    23 1   
    41    19    48 1   
    42    20    49 1   
    43    21    22 2   
    44    23    24 1   
    45    23    26 1   
    46    23    50 1   
    47    25    28 1   
    48    25    51 1   
    49    26    27 1   
    50    26    52 1   
    51    26    53 1   
    52    27    54 1   
    53    28    29 1   
    54    28    55 1   
    55    29    56 1   
    56    29    57 1   
    57    30    31 1   
    58    30    58 1   
    59    30    59 1   
    60    31    32 1   
    61    31    60 1   
    62    31    61 1   
    63    32    33 1   
    64    32    62 1   
    65    32    63 1   
    66    33    34 1   
    67    33    64 1   
    68    33    65 1   
    69    34    35 1   
    70    34    36 2   
    71    35    66 1   
@<TRIPOS>SUBSTRUCTURE
     1 BS5         1 TEMP              0 ****  ****    0 ROOT
