@<TRIPOS>MOLECULE
molecule
   39    41     1     0     0
SMALL
bcc


@<TRIPOS>ATOM
      1 C10          0.0000     0.0000     0.0000 c3         1 BS7       0.116100
      2 C20          7.5440    -0.1940     1.7320 ca         1 BS7       0.414200
      3 C21          8.2120    -0.0970     2.9500 ca         1 BS7      -0.248300
      4 C22          7.5010     0.0490     4.1070 ca         1 BS7      -0.089000
      5 C01          3.9430     0.2880     5.0480 ca         1 BS7      -0.082000
      6 C02          5.2990     0.2460     5.1690 ca         1 BS7      -0.156000
      7 C03          6.0970     0.0970     4.0220 ca         1 BS7      -0.123300
      8 C04          5.4820    -0.0080     2.7510 ca         1 BS7       0.403600
      9 C05          4.0740     0.0410     2.6640 ca         1 BS7       0.110800
     10 C06          3.3330     0.1870     3.8010 ca         1 BS7      -0.209000
     11 O07          3.4610    -0.0570     1.4550 os         1 BS7      -0.271900
     12 C08          2.0340     0.0000     1.4470 c3         1 BS7       0.342900
     13 C09          1.5320     0.0000     0.0000 c3         1 BS7       0.129100
     14 C11         -0.5010    -1.2130     0.7890 c3         1 BS7       0.096100
     15 C12          0.0800    -1.1670     2.2050 c3         1 BS7       0.155100
     16 O13          1.5070    -1.1380     2.1320 os         1 BS7      -0.411600
     17 C14         -0.3670    -2.4080     2.9800 c3         1 BS7       0.150400
     18 O15          0.0770    -2.3070     4.3350 oh         1 BS7      -0.599800
     19 O16         -0.0760    -2.4130     0.1380 oh         1 BS7      -0.576800
     20 O17         -0.4780    -0.0710    -1.3450 oh         1 BS7      -0.591800
     21 O18          2.0100     1.1670    -0.6710 oh         1 BS7      -0.596800
     22 N19          6.2360    -0.1440     1.6570 nb         1 BS7      -0.653000
     23 H101        -0.3600     0.9080     0.4690 h1         1 BS7       0.046700
     24 H211         9.2940    -0.1430     2.9800 ha         1 BS7       0.135000
     25 H221         8.0040     0.1260     5.0640 ha         1 BS7       0.139000
     26 H011         3.3300     0.4030     5.9340 ha         1 BS7       0.131000
     27 H021         5.7610     0.3260     6.1460 ha         1 BS7       0.132000
     28 H061         2.2520     0.2230     3.7320 ha         1 BS7       0.149000
     29 H081         1.7010     0.9040     1.9420 h2         1 BS7       0.042700
     30 H091         1.8920    -0.8870    -0.5060 h1         1 BS7       0.089700
     31 H111        -1.5820    -1.1880     0.8420 h1         1 BS7       0.040700
     32 H121        -0.2720    -0.2740     2.7080 h1         1 BS7       0.048700
     33 H141         0.0610    -3.2920     2.5240 h1         1 BS7       0.040700
     34 H142        -1.4480    -2.4770     2.9590 h1         1 BS7       0.040700
     35 H151        -0.4100    -2.9110     4.8710 ho         1 BS7       0.403000
     36 H161        -0.8170    -2.8270    -0.2730 ho         1 BS7       0.406000
     37 H171        -1.1580     0.5690    -1.4720 ho         1 BS7       0.406000
     38 H181         2.3460     0.9270    -1.5190 ho         1 BS7       0.420000
     39 H201         8.1200    -0.3100     0.8220 h4         1 BS7       0.022100
@<TRIPOS>BOND
     1    17    18 1
     2    17    15 1
     3    14    15 1
     4    14    19 1
     5    14     1 1
     6    15    16 1
     7    20     1 1
     8     1    13 1
     9    16    12 1
    10    13    12 1
    11    13    21 1
    12    12    11 1
    13    10     5 ar
    14    10     9 ar
    15    11     9 1
    16     5     6 ar
    17     9     8 ar
    18     6     7 ar
    19     8     7 ar
    20     8    22 ar
    21     7     4 ar
    22    22     2 ar
    23     4     3 ar
    24     2     3 ar
    25     1    23 1
    26     2    39 1
    27     3    24 1
    28     4    25 1
    29     5    26 1
    30     6    27 1
    31    10    28 1
    32    12    29 1
    33    13    30 1
    34    14    31 1
    35    15    32 1
    36    17    33 1
    37    17    34 1
    38    18    35 1
    39    19    36 1
    40    20    37 1
    41    21    38 1
@<TRIPOS>SUBSTRUCTURE
     1 BS7         1 TEMP              0 ****  ****    0 ROOT
