@<TRIPOS>MOLECULE
molecule
   25    27     1     0     0
SMALL
bcc


@<TRIPOS>ATOM
      1 C10          0.0000     0.0000     0.0000 ca         1 BS8       0.387200
      2 C13          4.2460    -1.0840     1.8070 ca         1 BS8      -0.231300
      3 C02          5.1130     2.9520    -0.0490 cc         1 BS8       0.661700
      4 C04          4.2780     1.0870     0.7940 ca         1 BS8      -0.197500
      5 C05          3.5430     0.0010     1.2760 cp         1 BS8      -0.011000
      6 C06          2.0600     0.0000     1.2250 cp         1 BS8      -0.051000
      7 C07          1.3020     0.0010     2.3990 ca         1 BS8      -0.215300
      8 C08         -0.0750     0.0000     2.3070 ca         1 BS8       0.404200
      9 C11          1.3820     0.0000     0.0000 ca         1 BS8       0.013600
     10 C14          5.6260    -1.0470     1.8360 ca         1 BS8       0.420200
     11 C16          5.6820     1.0500     0.8580 ca         1 BS8       0.592300
     12 F12          2.0680    -0.0000    -1.1640 f          1 BS8      -0.124900
     13 N03          3.9460     2.2970     0.2160 na         1 BS8      -0.271300
     14 N09         -0.6760    -0.0000     1.1330 nb         1 BS8      -0.663000
     15 N15          6.2970    -0.0110     1.3750 nb         1 BS8      -0.639000
     16 N17          6.1310     2.2160     0.3280 nd         1 BS8      -0.672700
     17 H1          -0.5350    -0.0000    -0.9420 h4         1 BS8       0.040100
     18 H2           3.7130    -1.9460     2.1910 ha         1 BS8       0.146000
     19 H3           1.7880     0.0010     3.3670 ha         1 BS8       0.153000
     20 H4          -0.6700     0.0010     3.2120 h4         1 BS8       0.032100
     21 H5           6.1700    -1.8880     2.2480 h4         1 BS8       0.030100
     22 H6           5.3580     5.0050    -0.0550 hn         1 BS8       0.450300
     23 H7           5.1570     4.2930    -1.6230 hn         1 BS8       0.450300
     24 H8           3.0260     2.6880     0.1570 hn         1 BS8       0.303700
     25 N01          5.2100     4.1980    -0.6280 nv         1 BS8      -1.005800
@<TRIPOS>BOND
     1    12     9 1
     2     1     9 ar
     3     1    14 ar
     4     9     6 ar
     5     2    10 ar
     6     2     5 ar
     7    10    15 ar
     8    14     8 ar
     9     6     5 1
    10     6     7 ar
    11     5     4 ar
    12    15    11 ar
    13     8     7 ar
    14     4    11 ar
    15     4    13 1
    16    11    16 1
    17    13     3 1
    18    16     3 2
    19     3    25 1
    20     1    17 1
    21     2    18 1
    22     7    19 1
    23     8    20 1
    24    10    21 1
    25    25    22 1
    26    25    23 1
    27    13    24 1
@<TRIPOS>SUBSTRUCTURE
     1 BS8         1 TEMP              0 ****  ****    0 ROOT
