@<TRIPOS>MOLECULE
BSA
   25    25     1     0     0
SMALL
bcc


@<TRIPOS>ATOM
      1 C1           0.0000     0.0000     0.0000 ca         1 BSA      -0.139600
      2 C2           1.3950     0.0000     0.0000 ca         1 BSA      -0.063500
      3 C3           2.0820     0.0000     1.1970 ca         1 BSA      -0.118000
      4 C4           1.3900     0.0000     2.3950 ca         1 BSA      -0.095000
      5 C5           0.0060     0.0000     2.4010 ca         1 BSA      -0.118000
      6 C6          -0.6930     0.0060     1.2120 ca         1 BSA      -0.063500
      7 C7          -4.3290     0.0020    -2.2600 c3         1 BSA      -0.073600
      8 S8          -5.2400     0.0030    -3.8290 s6         1 BSA       0.953800
      9 N9          -2.0900     0.0010    -1.2760 ns         1 BSA      -0.188900
     10 C10         -2.8260     0.0020    -2.5430 c3         1 BSA       0.076000
     11 O11         -6.6950     0.0030    -3.3860 o          1 BSA      -0.651200
     12 O12         -5.1170    -1.2400    -4.5060 o          1 BSA      -0.651200
     13 C13         -0.7420     0.0010    -1.2790 c          1 BSA       0.579700
     14 O14         -0.1370     0.0010    -2.3330 o          1 BSA      -0.663100
     15 O15         -5.1160     1.2470    -4.5050 o          1 BSA      -0.651200
     16 H2           1.9380    -0.0020    -0.9370 ha         1 BSA       0.117000
     17 H3           3.1650     0.0000     1.1980 ha         1 BSA       0.099000
     18 H4           1.9340    -0.0020     3.3320 ha         1 BSA       0.094000
     19 H5          -0.5300     0.0020     3.3430 ha         1 BSA       0.099000
     20 H6          -1.7760     0.0060     1.2190 ha         1 BSA       0.117000
     21 H71         -4.5900    -0.8830    -1.6920 h1         1 BSA       0.050700
     22 H72         -4.5890     0.8870    -1.6910 h1         1 BSA       0.050700
     23 HN9         -2.5890    -0.0050    -0.4080 hn         1 BSA       0.174500
     24 H101        -2.5650     0.8870    -3.1110 h1         1 BSA       0.032200
     25 H102        -2.5660    -0.8820    -3.1120 h1         1 BSA       0.032200
@<TRIPOS>BOND
     1     1     2 ar  
     2     1     6 ar  
     3     1    13 1   
     4     2     3 ar  
     5     2    16 1   
     6     3     4 ar  
     7     3    17 1   
     8     4     5 ar  
     9     4    18 1   
    10     5     6 ar  
    11     5    19 1   
    12     6    20 1   
    13     7     8 1   
    14     7    10 1   
    15     7    21 1   
    16     7    22 1   
    17     8    11 1   
    18     8    12 1   
    19     8    15 1   
    20     9    10 1   
    21     9    13 1   
    22     9    23 1   
    23    10    24 1   
    24    10    25 1   
    25    13    14 2   
@<TRIPOS>SUBSTRUCTURE
     1 BSA         1 TEMP              0 ****  ****    0 ROOT
