@<TRIPOS>MOLECULE
BSB
   35    36     1     0     0
SMALL
bcc


@<TRIPOS>ATOM
      1 C01          0.0000     0.0000     0.0000 ca         1 BSB      -0.077000
      2 C02          1.3800     0.0000     0.0000 ca         1 BSB       0.006000
      3 C03          2.0740     0.0000     1.1960 ca         1 BSB      -0.222500
      4 C04          1.3920    -0.0050     2.3990 ca         1 BSB       0.006000
      5 C05          0.0120     0.0010     2.4130 ca         1 BSB      -0.077000
      6 C06         -0.6940     0.0010     1.2100 ca         1 BSB      -0.037600
      7 C07         -2.1720     0.0020     1.2180 c          1 BSB       0.556700
      8 O08         -2.7860     0.0030     0.1680 o          1 BSB      -0.616100
      9 N09         -2.8400     0.0020     2.3880 ns         1 BSB      -0.167900
     10 C10         -4.3050     0.0040     2.3960 c3         1 BSB       0.113300
     11 S11          3.8370    -0.0020     1.1870 sy         1 BSB       0.940200
     12 NP2          4.3330     1.5780     1.1840 nz         1 BSB      -0.131500
     13 O13          4.2160    -0.5280    -0.0770 o          1 BSB      -0.495300
     14 O14          4.2280    -0.5270     2.4480 o          1 BSB      -0.495300
     15 C15         -4.8000     0.0040     3.8190 ca         1 BSB      -0.147300
     16 C16         -5.0270     1.2010     4.4710 ca         1 BSB      -0.083000
     17 C17         -5.4810     1.2020     5.7770 ca         1 BSB      -0.097000
     18 C18         -5.7090     0.0070     6.4300 ca         1 BSB      -0.079000
     19 C19         -5.4840    -1.1910     5.7760 ca         1 BSB      -0.097000
     20 C20         -5.0340    -1.1920     4.4700 ca         1 BSB      -0.083000
     21 H01C        -0.5430    -0.0000    -0.9370 ha         1 BSB       0.143500
     22 H02C         1.9200     0.0010    -0.9390 ha         1 BSB       0.128000
     23 H04C         1.9420    -0.0050     3.3320 ha         1 BSB       0.128000
     24 H05C        -0.5220     0.0000     3.3560 ha         1 BSB       0.143500
     25 H09N        -2.3350     0.0010     3.2520 hn         1 BSB       0.177500
     26 H101        -4.6700    -0.8800     1.8870 h1         1 BSB       0.037700
     27 H102        -4.6680     0.8890     1.8870 h1         1 BSB       0.037700
     28 HNP1         3.9860     2.0380     2.0020 hn         1 BSB       0.313800
     29 HNP2         5.3330     1.6130     1.1810 hn         1 BSB       0.313800
     30 H16C        -4.8480     2.1390     3.9590 ha         1 BSB       0.107000
     31 H17C        -5.6580     2.1410     6.2880 ha         1 BSB       0.110500
     32 H18C        -6.0640     0.0070     7.4540 ha         1 BSB       0.111000
     33 H19C        -5.6650    -2.1290     6.2870 ha         1 BSB       0.110500
     34 H20C        -4.8570    -2.1300     3.9580 ha         1 BSB       0.107000
     35 HP23         3.9850     2.0350     0.3650 hn         1 BSB       0.313800
@<TRIPOS>BOND
     1     1     2 ar  
     2     1     6 ar  
     3     1    21 1   
     4     2     3 ar  
     5     2    22 1   
     6     3     4 ar  
     7     3    11 1   
     8     4     5 ar  
     9     4    23 1   
    10     5     6 ar  
    11     5    24 1   
    12     6     7 1   
    13     7     8 2   
    14     7     9 1   
    15     9    10 1   
    16     9    25 1   
    17    10    15 1   
    18    10    26 1   
    19    10    27 1   
    20    11    12 1   
    21    11    13 2   
    22    11    14 2   
    23    12    28 1   
    24    12    29 1   
    25    12    35 1   
    26    15    16 ar  
    27    15    20 ar  
    28    16    17 ar  
    29    16    30 1   
    30    17    18 ar  
    31    17    31 1   
    32    18    19 ar  
    33    18    32 1   
    34    19    20 ar  
    35    19    33 1   
    36    20    34 1   
@<TRIPOS>SUBSTRUCTURE
     1 BSB         1 TEMP              0 ****  ****    0 ROOT
