@<TRIPOS>MOLECULE
molecule
   32    31     1     0     0
SMALL
bcc


@<TRIPOS>ATOM
      1 CAB          0.0000     0.0000     0.0000 c3         1 BSC      -0.092100
      2 CAC          1.5310     0.0000     0.0000 c3         1 BSC      -0.075400
      3 CAD          2.0410     0.0000     1.4420 c3         1 BSC      -0.058400
      4 CAE          3.5710     0.0000     1.4410 c3         1 BSC      -0.124600
      5 SAF          4.1770    -0.0000     3.1510 s6         1 BSC       0.821700
      6 NAA          3.7520     1.2870     3.7790 n2         1 BSC      -0.909900
      7 OAG          3.6410    -1.0520     3.9430 o          1 BSC      -0.635800
      8 CAH          5.9890     0.0000     3.0770 c3         1 BSC      -0.181600
      9 CB           6.5570     0.0000     4.4980 c3         1 BSC      -0.061400
     10 CA           8.0850     0.0000     4.4360 c3         1 BSC      -0.012500
     11 C            8.6460     0.1240     5.8300 c          1 BSC       0.868600
     12 O            8.7030     1.3250     6.4260 o          1 BSC      -0.769300
     13 OXT          9.0420    -0.8580     6.4110 o          1 BSC      -0.769300
     14 N            8.5510    -1.2540     3.8310 nz         1 BSC      -0.791600
     15 HAB1        -0.3610    -0.8820     0.5140 hc         1 BSC       0.039033
     16 HAB2        -0.3610     0.8860     0.5070 hc         1 BSC       0.039033
     17 HAB3        -0.3610    -0.0040    -1.0210 hc         1 BSC       0.039033
     18 HAC1         1.8920     0.8840    -0.5110 hc         1 BSC       0.041700
     19 HAC2         1.8920    -0.8840    -0.5110 hc         1 BSC       0.041700
     20 HAD1         1.6800     0.8840     1.9530 hc         1 BSC       0.067200
     21 HAD2         1.6800    -0.8850     1.9530 hc         1 BSC       0.067200
     22 HAE1         3.9320     0.8850     0.9310 h1         1 BSC       0.091200
     23 HAE2         3.9320    -0.8840     0.9300 h1         1 BSC       0.091200
     24 HAA1         3.1890     1.2780     4.6060 hn         1 BSC       0.484400
     25 HAH1         6.3290    -0.8840     2.5520 h1         1 BSC       0.076700
     26 HAH2         6.3280     0.8850     2.5530 h1         1 BSC       0.076700
     27 HB1          6.2170    -0.8840     5.0230 hc         1 BSC       0.104700
     28 HB2          6.2170     0.8850     5.0230 hc         1 BSC       0.104700
     29 HA           8.4220     0.8370     3.8360 hx         1 BSC       0.105700
     30 HN1          8.3810    -1.2330     2.8450 hn         1 BSC       0.438467
     31 HN2          8.0570    -2.0240     4.2360 hn         1 BSC       0.438467
     32 HN3          9.5320    -1.3620     3.9990 hn         1 BSC       0.438467
@<TRIPOS>BOND
     1     1     2 1
     2     1    15 1
     3     1    16 1
     4     1    17 1
     5     2     3 1
     6     2    18 1
     7     2    19 1
     8     3     4 1
     9     3    20 1
    10     3    21 1
    11     4     5 1
    12     4    22 1
    13     4    23 1
    14     5     6 2
    15     5     7 2
    16     5     8 1
    17     6    24 1
    18     8     9 1
    19     8    25 1
    20     8    26 1
    21     9    10 1
    22     9    27 1
    23     9    28 1
    24    10    11 1
    25    10    14 1
    26    10    29 1
    27    11    12 1
    28    11    13 1
    29    14    30 1
    30    14    31 1
    31    32    14 1
@<TRIPOS>SUBSTRUCTURE
     1 BSC         1 TEMP              0 ****  ****    0 ROOT
