@<TRIPOS>MOLECULE
molecule
   89    92     1     0     0
SMALL
bcc


@<TRIPOS>ATOM
      1 C11          0.0000     0.0000     0.0000 ca         1 BSD      -0.113500
      2 C12          1.4170     0.0000     0.0000 ca         1 BSD      -0.129000
      3 C13          2.1310     0.0000     1.2220 ca         1 BSD      -0.123000
      4 C14          1.4350     0.0020     2.4540 ca         1 BSD      -0.129000
      5 C15          0.0160     0.0030     2.4570 ca         1 BSD      -0.113500
      6 C16         -0.7130    -0.0010     1.2200 ca         1 BSD      -0.106300
      7 C17         -2.2510     0.0070     1.1760 c3         1 BSD       0.164000
      8 C18         -2.9170    -1.1890     1.8790 c3         1 BSD      -0.101100
      9 N21         -2.7700     1.2350     1.8070 ns         1 BSD      -0.571900
     10 C21         -3.3010     2.2690     1.1180 c          1 BSD       0.686700
     11 O21         -3.3830     2.2290    -0.1080 o          1 BSD      -0.605100
     12 C23         -3.7460     3.4620     1.9240 ca         1 BSD      -0.119600
     13 C24         -3.6810     4.7870     1.3680 ca         1 BSD      -0.066000
     14 C25         -4.0820     5.9470     2.1340 ca         1 BSD       0.093600
     15 C26         -4.5480     5.7310     3.4610 ca         1 BSD      -0.073000
     16 C27         -4.6200     4.4200     4.0290 ca         1 BSD      -0.126600
     17 C28         -4.2160     3.3220     3.2440 ca         1 BSD      -0.093000
     18 N22         -4.0320     7.2920     1.5310 nh         1 BSD      -0.488900
     19 C29         -4.3100     8.4680     2.4210 c3         1 BSD       0.162100
     20 S2          -2.6190     7.6490     0.5340 s6         1 BSD       0.782900
     21 O23         -2.2100     9.1440     0.6940 o          1 BSD      -0.511300
     22 O24         -1.3710     6.7480     0.8900 o          1 BSD      -0.511300
     23 C20         -3.0800     7.4580    -1.1980 c3         1 BSD      -0.117300
     24 C22         -5.1180     4.2540     5.4210 c          1 BSD       0.686700
     25 O22         -6.1270     4.8880     5.8070 o          1 BSD      -0.597100
     26 N3          -4.4390     3.3750     6.2320 ns         1 BSD      -0.577900
     27 C31         -4.9730     2.7700     7.5050 c3         1 BSD       0.121700
     28 C32         -5.1580     1.2210     7.2910 c3         1 BSD      -0.054100
     29 C33         -5.7240     0.6570     5.9760 ca         1 BSD      -0.084300
     30 C34         -6.8560     1.2480     5.3490 ca         1 BSD      -0.130500
     31 C35         -7.3700     0.6960     4.1380 ca         1 BSD      -0.128000
     32 C36         -6.7570    -0.4380     3.5630 ca         1 BSD      -0.132000
     33 C37         -5.6180    -1.0370     4.1830 ca         1 BSD      -0.128000
     34 C38         -5.1060    -0.4870     5.3870 ca         1 BSD      -0.130500
     35 C39         -4.0180     2.8970     8.7330 c3         1 BSD       0.111100
     36 O3          -4.6610     2.6610     9.9690 oh         1 BSD      -0.594800
     37 C30         -3.2510     4.2070     8.8870 c3         1 BSD       0.173800
     38 N4          -3.9870     5.4700     8.9750 n7         1 BSD      -0.832200
     39 C41         -4.0150     6.1980    10.2880 c3         1 BSD       0.228100
     40 C42         -5.4520     6.2730    10.8050 ca         1 BSD      -0.110300
     41 C43         -5.9170     5.2740    11.6840 ca         1 BSD      -0.145000
     42 C44         -7.2400     5.2710    12.1490 ca         1 BSD       0.119100
     43 C45         -8.1240     6.3000    11.7190 ca         1 BSD      -0.139000
     44 C46         -7.6790     7.3140    10.8420 ca         1 BSD      -0.120000
     45 C47         -6.3330     7.3020    10.3770 ca         1 BSD      -0.125000
     46 O4          -7.7760     4.3190    12.9980 os         1 BSD      -0.370900
     47 C48         -7.2680     4.0590    14.3160 c3         1 BSD       0.148700
     48 H11         -0.5390    -0.0010    -0.9400 ha         1 BSD       0.130500
     49 H12          1.9560    -0.0000    -0.9400 ha         1 BSD       0.134000
     50 H13          3.2150    -0.0000     1.2140 ha         1 BSD       0.133000
     51 H14          1.9820     0.0040     3.3890 ha         1 BSD       0.134000
     52 H15         -0.5210     0.0030     3.3980 ha         1 BSD       0.130500
     53 H17         -2.5580     0.0030     0.1370 h1         1 BSD       0.089700
     54 H181        -2.4430    -2.1080     1.5560 hc         1 BSD       0.044367
     55 H182        -2.8070    -1.0840     2.9520 hc         1 BSD       0.044367
     56 H183        -3.9690    -1.2170     1.6250 hc         1 BSD       0.044367
     57 H21         -2.7250     1.3070     2.8040 hn         1 BSD       0.308500
     58 H24         -3.3220     4.9190     0.3550 ha         1 BSD       0.149000
     59 H28         -4.2710     2.3290     3.6730 ha         1 BSD       0.140000
     60 H26         -4.8550     6.5810     4.0570 ha         1 BSD       0.157000
     61 H291        -4.2090     9.3840     1.8520 h1         1 BSD       0.067700
     62 H292        -3.6030     8.4740     3.2430 h1         1 BSD       0.067700
     63 H293        -5.3170     8.3950     2.8120 h1         1 BSD       0.067700
     64 H201        -2.9940     8.4130    -1.7020 h1         1 BSD       0.110367
     65 H202        -4.1020     7.1060    -1.2630 h1         1 BSD       0.110367
     66 H203        -2.4200     6.7400    -1.6700 h1         1 BSD       0.110367
     67 H3          -3.5130     3.1170     5.9550 hn         1 BSD       0.310500
     68 H31         -5.9300     3.2180     7.7440 h1         1 BSD       0.103700
     69 H321        -4.1850     0.7650     7.4350 hc         1 BSD       0.048700
     70 H322        -5.8010     0.8680     8.0880 hc         1 BSD       0.048700
     71 H39         -3.2740     2.1180     8.6190 h1         1 BSD       0.022700
     72 H34         -7.3270     2.1180     5.7910 ha         1 BSD       0.137500
     73 H38         -4.2430    -0.9380     5.8610 ha         1 BSD       0.137500
     74 H35         -8.2330     1.1450     3.6620 ha         1 BSD       0.136500
     75 H36         -7.1510    -0.8540     2.6430 ha         1 BSD       0.134000
     76 H37         -5.1490    -1.9060     3.7380 ha         1 BSD       0.136500
     77 HA          -4.3450     1.8540    10.3390 ho         1 BSD       0.405000
     78 H301        -2.6480     4.1230     9.7830 h1         1 BSD       0.044700
     79 H302        -2.5760     4.2860     8.0440 h1         1 BSD       0.044700
     80 H4          -4.9240     5.3340     8.6490 hn         1 BSD       0.378800
     81 H411        -3.4010     5.6690    11.0070 h1         1 BSD       0.050700
     82 H412        -3.6280     7.2010    10.1530 h1         1 BSD       0.050700
     83 H43         -5.2390     4.4940    12.0070 ha         1 BSD       0.138000
     84 H47         -5.9820     8.0740     9.7040 ha         1 BSD       0.139000
     85 H45         -9.1480     6.3080    12.0720 ha         1 BSD       0.141000
     86 H46         -8.3590     8.0940    10.5200 ha         1 BSD       0.137000
     87 H481        -6.4380     3.3660    14.2540 h1         1 BSD       0.034033
     88 H482        -6.9310     4.9870    14.7630 h1         1 BSD       0.034033
     89 H483        -8.0530     3.6290    14.9270 h1         1 BSD       0.034033
@<TRIPOS>BOND
     1     1     2 ar
     2     1     6 ar
     3     2     3 ar
     4     3     4 ar
     5     4     5 ar
     6     5     6 ar
     7     6     7 1
     8     7     8 1
     9     7     9 1
    10     9    10 1
    11    10    11 2
    12    10    12 1
    13    12    13 ar
    14    12    17 ar
    15    13    14 ar
    16    14    15 ar
    17    14    18 1
    18    15    16 ar
    19    16    17 ar
    20    16    24 1
    21    18    19 1
    22    18    20 1
    23    20    21 2
    24    20    22 2
    25    20    23 1
    26    24    25 2
    27    24    26 1
    28    26    27 1
    29    27    28 1
    30    27    35 1
    31    28    29 1
    32    29    30 ar
    33    29    34 ar
    34    30    31 ar
    35    31    32 ar
    36    32    33 ar
    37    33    34 ar
    38    35    36 1
    39    35    37 1
    40    37    38 1
    41    38    39 1
    42    39    40 1
    43    40    41 ar
    44    40    45 ar
    45    41    42 ar
    46    42    43 ar
    47    42    46 1
    48    43    44 ar
    49    44    45 ar
    50    46    47 1
    51     1    48 1
    52     2    49 1
    53     3    50 1
    54     4    51 1
    55     5    52 1
    56     7    53 1
    57     8    54 1
    58     8    55 1
    59     8    56 1
    60     9    57 1
    61    13    58 1
    62    17    59 1
    63    15    60 1
    64    19    61 1
    65    19    62 1
    66    19    63 1
    67    23    64 1
    68    23    65 1
    69    23    66 1
    70    26    67 1
    71    27    68 1
    72    28    69 1
    73    28    70 1
    74    35    71 1
    75    30    72 1
    76    34    73 1
    77    31    74 1
    78    32    75 1
    79    33    76 1
    80    36    77 1
    81    37    78 1
    82    37    79 1
    83    38    80 1
    84    39    81 1
    85    39    82 1
    86    41    83 1
    87    45    84 1
    88    43    85 1
    89    44    86 1
    90    47    87 1
    91    47    88 1
    92    47    89 1
@<TRIPOS>SUBSTRUCTURE
     1 BSD         1 TEMP              0 ****  ****    0 ROOT
