@<TRIPOS>MOLECULE
BSD
   89    92     1     0     0
SMALL
bcc


@<TRIPOS>ATOM
      1 C11          0.0000     0.0000     0.0000 ca         1 BSD      -0.083000
      2 C12          1.4170     0.0000     0.0000 ca         1 BSD      -0.100000
      3 C13          2.1310     0.0000     1.2220 ca         1 BSD      -0.093000
      4 C14          1.4350     0.0020     2.4540 ca         1 BSD      -0.100000
      5 C15          0.0160     0.0030     2.4570 ca         1 BSD      -0.083000
      6 C16         -0.7130    -0.0010     1.2200 ca         1 BSD      -0.116300
      7 C17         -2.2510     0.0070     1.1760 c3         1 BSD       0.080000
      8 C18         -2.9170    -1.1890     1.8790 c3         1 BSD      -0.010100
      9 N21         -2.7700     1.2350     1.8070 ns         1 BSD      -0.188900
     10 C21         -3.3010     2.2690     1.1180 c          1 BSD       0.612700
     11 O21         -3.3830     2.2290    -0.1080 o          1 BSD      -0.649100
     12 C23         -3.7460     3.4620     1.9240 ca         1 BSD      -0.132600
     13 C24         -3.6810     4.7870     1.3680 ca         1 BSD      -0.026000
     14 C25         -4.0820     5.9470     2.1340 ca         1 BSD       0.028600
     15 C26         -4.5480     5.7310     3.4610 ca         1 BSD      -0.044000
     16 C27         -4.6200     4.4200     4.0290 ca         1 BSD      -0.137600
     17 C28         -4.2160     3.3220     3.2440 ca         1 BSD      -0.072000
     18 N22         -4.0320     7.2920     1.5310 nh         1 BSD      -0.219900
     19 C29         -4.3100     8.4680     2.4210 c3         1 BSD       0.209100
     20 S2          -2.6190     7.6490     0.5340 s6         1 BSD       0.499900
     21 O23         -2.2100     9.1440     0.6940 o          1 BSD      -0.494300
     22 O24         -1.3710     6.7480     0.8900 o          1 BSD      -0.494300
     23 C20         -3.0800     7.4580    -1.1980 c3         1 BSD       0.120700
     24 C22         -5.1180     4.2540     5.4210 c          1 BSD       0.612700
     25 O22         -6.1270     4.8880     5.8070 o          1 BSD      -0.636100
     26 N3          -4.4390     3.3750     6.2320 ns         1 BSD      -0.189900
     27 C31         -4.9730     2.7700     7.5050 c3         1 BSD       0.025700
     28 C32         -5.1580     1.2210     7.2910 c3         1 BSD       0.010900
     29 C33         -5.7240     0.6570     5.9760 ca         1 BSD      -0.092300
     30 C34         -6.8560     1.2480     5.3490 ca         1 BSD      -0.104000
     31 C35         -7.3700     0.6960     4.1380 ca         1 BSD      -0.099000
     32 C36         -6.7570    -0.4380     3.5630 ca         1 BSD      -0.104000
     33 C37         -5.6180    -1.0370     4.1830 ca         1 BSD      -0.099000
     34 C38         -5.1060    -0.4870     5.3870 ca         1 BSD      -0.104000
     35 C39         -4.0180     2.8970     8.7330 c3         1 BSD       0.163100
     36 O3          -4.6610     2.6610     9.9690 oh         1 BSD      -0.575800
     37 C30         -3.2510     4.2070     8.8870 c3         1 BSD       0.141800
     38 N4          -3.9870     5.4700     8.9750 n7         1 BSD      -0.601200
     39 C41         -4.0150     6.1980    10.2880 c3         1 BSD       0.224100
     40 C42         -5.4520     6.2730    10.8050 ca         1 BSD      -0.111300
     41 C43         -5.9170     5.2740    11.6840 ca         1 BSD      -0.125000
     42 C44         -7.2400     5.2710    12.1490 ca         1 BSD       0.128100
     43 C45         -8.1240     6.3000    11.7190 ca         1 BSD      -0.120000
     44 C46         -7.6790     7.3140    10.8420 ca         1 BSD      -0.087000
     45 C47         -6.3330     7.3020    10.3770 ca         1 BSD      -0.095000
     46 O4          -7.7760     4.3190    12.9980 os         1 BSD      -0.348900
     47 C48         -7.2680     4.0590    14.3160 c3         1 BSD       0.270700
     48 H11         -0.5390    -0.0010    -0.9400 ha         1 BSD       0.104000
     49 H12          1.9560    -0.0000    -0.9400 ha         1 BSD       0.104500
     50 H13          3.2150    -0.0000     1.2140 ha         1 BSD       0.103000
     51 H14          1.9820     0.0040     3.3890 ha         1 BSD       0.104500
     52 H15         -0.5210     0.0030     3.3980 ha         1 BSD       0.104000
     53 H17         -2.5580     0.0030     0.1370 h1         1 BSD       0.062700
     54 H181        -2.4430    -2.1080     1.5560 hc         1 BSD       0.012033
     55 H182        -2.8070    -1.0840     2.9520 hc         1 BSD       0.012033
     56 H183        -3.9690    -1.2170     1.6250 hc         1 BSD       0.012033
     57 H21         -2.7250     1.3070     2.8040 hn         1 BSD       0.172500
     58 H24         -3.3220     4.9190     0.3550 ha         1 BSD       0.119000
     59 H28         -4.2710     2.3290     3.6730 ha         1 BSD       0.108000
     60 H26         -4.8550     6.5810     4.0570 ha         1 BSD       0.127000
     61 H291        -4.2090     9.3840     1.8520 h1         1 BSD       0.027700
     62 H292        -3.6030     8.4740     3.2430 h1         1 BSD       0.027700
     63 H293        -5.3170     8.3950     2.8120 h1         1 BSD       0.027700
     64 H201        -2.9940     8.4130    -1.7020 h1         1 BSD       0.071033
     65 H202        -4.1020     7.1060    -1.2630 h1         1 BSD       0.071033
     66 H203        -2.4200     6.7400    -1.6700 h1         1 BSD       0.071033
     67 H3          -3.5130     3.1170     5.9550 hn         1 BSD       0.170500
     68 H31         -5.9300     3.2180     7.7440 h1         1 BSD       0.072700
     69 H321        -4.1850     0.7650     7.4350 hc         1 BSD       0.019200
     70 H322        -5.8010     0.8680     8.0880 hc         1 BSD       0.019200
     71 H39         -3.2740     2.1180     8.6190 h1         1 BSD      -0.007300
     72 H34         -7.3270     2.1180     5.7910 ha         1 BSD       0.112500
     73 H38         -4.2430    -0.9380     5.8610 ha         1 BSD       0.112500
     74 H35         -8.2330     1.1450     3.6620 ha         1 BSD       0.108500
     75 H36         -7.1510    -0.8540     2.6430 ha         1 BSD       0.106000
     76 H37         -5.1490    -1.9060     3.7380 ha         1 BSD       0.108500
     77 HA          -4.3450     1.8540    10.3390 ho         1 BSD       0.392000
     78 H301        -2.6480     4.1230     9.7830 h1         1 BSD       0.016200
     79 H302        -2.5760     4.2860     8.0440 h1         1 BSD       0.016200
     80 H4          -4.9240     5.3340     8.6490 hn         1 BSD       0.279800
     81 H411        -3.4010     5.6690    11.0070 h1         1 BSD       0.017700
     82 H412        -3.6280     7.2010    10.1530 h1         1 BSD       0.017700
     83 H43         -5.2390     4.4940    12.0070 ha         1 BSD       0.113000
     84 H47         -5.9820     8.0740     9.7040 ha         1 BSD       0.111000
     85 H45         -9.1480     6.3080    12.0720 ha         1 BSD       0.112000
     86 H46         -8.3590     8.0940    10.5200 ha         1 BSD       0.106000
     87 H481        -6.4380     3.3660    14.2540 h1         1 BSD      -0.011300
     88 H482        -6.9310     4.9870    14.7630 h1         1 BSD      -0.011300
     89 H483        -8.0530     3.6290    14.9270 h1         1 BSD      -0.011300
@<TRIPOS>BOND
     1     1     2 ar  
     2     1     6 ar  
     3     1    48 1   
     4     2     3 ar  
     5     2    49 1   
     6     3     4 ar  
     7     3    50 1   
     8     4     5 ar  
     9     4    51 1   
    10     5     6 ar  
    11     5    52 1   
    12     6     7 1   
    13     7     8 1   
    14     7     9 1   
    15     7    53 1   
    16     8    54 1   
    17     8    55 1   
    18     8    56 1   
    19     9    10 1   
    20     9    57 1   
    21    10    11 2   
    22    10    12 1   
    23    12    13 ar  
    24    12    17 ar  
    25    13    14 ar  
    26    13    58 1   
    27    14    15 ar  
    28    14    18 1   
    29    15    16 ar  
    30    15    60 1   
    31    16    17 ar  
    32    16    24 1   
    33    17    59 1   
    34    18    19 1   
    35    18    20 1   
    36    19    61 1   
    37    19    62 1   
    38    19    63 1   
    39    20    21 2   
    40    20    22 2   
    41    20    23 1   
    42    23    64 1   
    43    23    65 1   
    44    23    66 1   
    45    24    25 2   
    46    24    26 1   
    47    26    27 1   
    48    26    67 1   
    49    27    28 1   
    50    27    35 1   
    51    27    68 1   
    52    28    29 1   
    53    28    69 1   
    54    28    70 1   
    55    29    30 ar  
    56    29    34 ar  
    57    30    31 ar  
    58    30    72 1   
    59    31    32 ar  
    60    31    74 1   
    61    32    33 ar  
    62    32    75 1   
    63    33    34 ar  
    64    33    76 1   
    65    34    73 1   
    66    35    36 1   
    67    35    37 1   
    68    35    71 1   
    69    36    77 1   
    70    37    38 1   
    71    37    78 1   
    72    37    79 1   
    73    38    39 1   
    74    38    80 1   
    75    39    40 1   
    76    39    81 1   
    77    39    82 1   
    78    40    41 ar  
    79    40    45 ar  
    80    41    42 ar  
    81    41    83 1   
    82    42    43 ar  
    83    42    46 1   
    84    43    44 ar  
    85    43    85 1   
    86    44    45 ar  
    87    44    86 1   
    88    45    84 1   
    89    46    47 1   
    90    47    87 1   
    91    47    88 1   
    92    47    89 1   
@<TRIPOS>SUBSTRUCTURE
     1 BSD         1 TEMP              0 ****  ****    0 ROOT
