@<TRIPOS>MOLECULE
molecule
   46    49     1     0     0
SMALL
bcc


@<TRIPOS>ATOM
      1 C1           0.0000     0.0000     0.0000 ca         1 BSI      -0.149000
      2 C2           1.3800     0.0000     0.0000 ca         1 BSI      -0.132000
      3 C3           2.0850     0.0000     1.1960 ca         1 BSI      -0.092300
      4 C7           3.5910    -0.0260     1.1250 c3         1 BSI       0.289100
      5 C9           3.5410    -0.4600     3.5960 c3         1 BSI       0.137500
      6 C10          2.1000     0.0280     3.7280 c3         1 BSI      -0.049100
      7 C16          4.7580     2.9010     2.8020 ca         1 BSI      -0.299500
      8 C19          3.7130     5.4550     3.0250 cp         1 BSI      -0.015000
      9 C20          3.8960     4.6720     4.1630 ca         1 BSI      -0.157500
     10 C21          4.4180     3.3990     4.0450 ca         1 BSI      -0.022500
     11 C22          3.1520     6.8230     3.1450 cp         1 BSI      -0.026000
     12 C24          1.5970     8.3520     4.1480 ca         1 BSI      -0.134000
     13 C27          3.6610     7.8580     2.3650 ca         1 BSI      -0.116500
     14 O28          5.9720     0.9710     3.9340 o          1 BSI      -0.613300
     15 C4           1.4050     0.0110     2.3920 ca         1 BSI      -0.040300
     16 C5           0.0140     0.0080     2.3890 ca         1 BSI      -0.138000
     17 C6          -0.6850     0.0020     1.2000 ca         1 BSI      -0.139000
     18 N8           4.1530     0.2360     2.4530 n3         1 BSI      -0.793500
     19 S15          5.4250     1.2770     2.6590 sy         1 BSI       1.415200
     20 C17          4.5840     3.6750     1.6690 ca         1 BSI      -0.022500
     21 C18          4.0580     4.9470     1.7750 ca         1 BSI      -0.157500
     22 C23          2.1100     7.0760     4.0360 ca         1 BSI      -0.116500
     23 C25          2.1050     9.3760     3.3690 ca         1 BSI      -0.139000
     24 C26          3.1350     9.1290     2.4810 ca         1 BSI      -0.134000
     25 O29          6.1410     1.2590     1.4320 o          1 BSI      -0.613300
     26 C43          4.3040    -0.1410     4.8560 c          1 BSI       0.899600
     27 O45          4.1740     0.9390     5.3840 o          1 BSI      -0.828300
     28 O46          5.1290    -1.0550     5.3910 o          1 BSI      -0.828300
     29 HC1         -0.5440    -0.0050    -0.9370 ha         1 BSI       0.114000
     30 HC2          1.9170    -0.0010    -0.9410 ha         1 BSI       0.119000
     31 HC71         3.9310     0.7360     0.4340 h1         1 BSI       0.050700
     32 HC72         3.9170    -1.0010     0.7830 h1         1 BSI       0.050700
     33 HC9          3.5490    -1.5280     3.4180 h1         1 BSI       0.058700
     34 HC01         2.1010     1.0410     4.1140 hc         1 BSI       0.065700
     35 HC02         1.5670    -0.6190     4.4130 hc         1 BSI       0.065700
     36 HC20         3.6300     5.0610     5.1380 ha         1 BSI       0.125500
     37 HC21         4.5610     2.7900     4.9290 ha         1 BSI       0.181000
     38 HC24         0.7880     8.5500     4.8410 ha         1 BSI       0.122500
     39 HC27         4.4680     7.6660     1.6680 ha         1 BSI       0.138500
     40 HC5         -0.5250     0.0090     3.3290 ha         1 BSI       0.126000
     41 HC6         -1.7680     0.0020     1.2070 ha         1 BSI       0.114000
     42 HC17         4.8520     3.2800     0.6970 ha         1 BSI       0.181000
     43 HC18         3.9190     5.5530     0.8870 ha         1 BSI       0.125500
     44 HC23         1.7110     6.2750     4.6460 ha         1 BSI       0.138500
     45 HC25         1.6970    10.3760     3.4590 ha         1 BSI       0.119000
     46 HC26         3.5300     9.9350     1.8740 ha         1 BSI       0.122500
@<TRIPOS>BOND
     1     1     2 ar
     2     1    17 ar
     3     1    29 1
     4     2     3 ar
     5     2    30 1
     6     3     4 1
     7     3    15 ar
     8     4    18 1
     9     4    31 1
    10     4    32 1
    11     5     6 1
    12     5    18 1
    13     5    26 1
    14     5    33 1
    15     6    15 1
    16     6    34 1
    17     6    35 1
    18     7    10 ar
    19     7    19 1
    20     7    20 ar
    21     8     9 ar
    22     8    11 1
    23     8    21 ar
    24     9    10 ar
    25     9    36 1
    26    10    37 1
    27    11    13 ar
    28    11    22 ar
    29    12    22 ar
    30    12    23 ar
    31    12    38 1
    32    13    24 ar
    33    13    39 1
    34    14    19 2
    35    15    16 ar
    36    16    17 ar
    37    16    40 1
    38    17    41 1
    39    18    19 1
    40    19    25 2
    41    20    21 ar
    42    20    42 1
    43    21    43 1
    44    22    44 1
    45    23    24 ar
    46    23    45 1
    47    24    46 1
    48    26    27 1
    49    26    28 1
@<TRIPOS>SUBSTRUCTURE
     1 BSI         1 TEMP              0 ****  ****    0 ROOT
