@<TRIPOS>MOLECULE
molecule
   45    47     1     0     0
SMALL
bcc


@<TRIPOS>ATOM
      1 C22          0.0000     0.0000     0.0000 c3         1 BSM       0.106700
      2 O21          1.4290     0.0000     0.0000 os         1 BSM      -0.300900
      3 C18          1.8210     0.0000     1.3020 ca         1 BSM       0.121100
      4 C19          3.1720    -0.0000     1.6170 ca         1 BSM      -0.194500
      5 C20          3.5750    -0.0000     2.9370 ca         1 BSM      -0.057500
      6 C17          0.8690    -0.0030     2.3120 ca         1 BSM      -0.194500
      7 C16          1.2640    -0.0080     3.6340 ca         1 BSM      -0.057500
      8 C7           2.6210    -0.0020     3.9550 ca         1 BSM      -0.035000
      9 C3           3.0480    -0.0030     5.3710 cc         1 BSM      -0.122300
     10 C2           3.7120    -1.0450     6.0760 cc         1 BSM       0.269800
     11 C8           4.1210    -2.3510     5.5240 c          1 BSM       0.602600
     12 O9           3.8880    -2.6200     4.3620 o          1 BSM      -0.593100
     13 N10          4.7520    -3.2470     6.3080 ns         1 BSM      -0.578900
     14 C26          5.1570    -4.5440     5.7610 c3         1 BSM       0.111000
     15 C27          5.8480    -5.3650     6.8520 c3         1 BSM      -0.112100
     16 N1           3.9020    -0.6250     7.3090 nd         1 BSM      -0.517800
     17 N5           3.4300     0.5580     7.4700 na         1 BSM       0.046400
     18 C4           2.8800     1.0100     6.3080 cd         1 BSM      -0.094300
     19 C6           2.2360     2.3200     6.0860 ca         1 BSM      -0.048000
     20 C11          1.0460     2.6370     6.7430 ca         1 BSM      -0.076000
     21 C12          0.4490     3.8620     6.5330 ca         1 BSM      -0.021600
     22 Cl25        -1.0310     4.2550     7.3520 cl         1 BSM      -0.086400
     23 C13          1.0270     4.7830     5.6680 ca         1 BSM       0.150100
     24 O24          0.4340     5.9880     5.4660 oh         1 BSM      -0.510100
     25 C14          2.2100     4.4770     5.0110 ca         1 BSM      -0.217000
     26 C15          2.8210     3.2530     5.2190 ca         1 BSM       0.166100
     27 O23          3.9790     2.9520     4.5760 oh         1 BSM      -0.489100
     28 H221        -0.3610     0.8830     0.5130 h1         1 BSM       0.041700
     29 H222        -0.3610    -0.8860     0.5080 h1         1 BSM       0.041700
     30 H223        -0.3610     0.0030    -1.0210 h1         1 BSM       0.041700
     31 H19          3.9120     0.0010     0.8260 ha         1 BSM       0.139500
     32 H20          4.6300     0.0020     3.1820 ha         1 BSM       0.134500
     33 H17         -0.1850    -0.0070     2.0630 ha         1 BSM       0.139500
     34 H16          0.5210    -0.0090     4.4220 ha         1 BSM       0.134500
     35 H10          4.9440    -3.0260     7.2650 hn         1 BSM       0.324500
     36 H261         5.8420    -4.3900     4.9360 h1         1 BSM       0.052200
     37 H262         4.2810    -5.0760     5.4090 h1         1 BSM       0.052200
     38 H271         5.1630    -5.5190     7.6770 hc         1 BSM       0.042033
     39 H272         6.7230    -4.8330     7.2040 hc         1 BSM       0.042033
     40 H273         6.1470    -6.3240     6.4470 hc         1 BSM       0.042033
     41 H5           3.4610     1.0740     8.3270 hn         1 BSM       0.335700
     42 H11          0.6160     1.9390     7.4500 ha         1 BSM       0.155000
     43 H24         -0.0730     5.9600     4.6710 ho         1 BSM       0.431000
     44 H14          2.6590     5.1980     4.3400 ha         1 BSM       0.156000
     45 H23          4.5990     3.6510     4.7010 ho         1 BSM       0.425000
@<TRIPOS>BOND
     1     1     2 1
     2     1    28 1
     3     1    29 1
     4     1    30 1
     5     2     3 1
     6     3     4 ar
     7     3     6 ar
     8     4     5 ar
     9     4    31 1
    10     5     8 ar
    11     5    32 1
    12     6     7 ar
    13     6    33 1
    14     7     8 ar
    15     7    34 1
    16     8     9 1
    17     9    10 1
    18     9    18 2
    19    10    11 1
    20    10    16 2
    21    11    12 2
    22    11    13 1
    23    13    14 1
    24    13    35 1
    25    14    15 1
    26    14    36 1
    27    14    37 1
    28    15    38 1
    29    15    39 1
    30    15    40 1
    31    16    17 1
    32    17    18 1
    33    17    41 1
    34    18    19 1
    35    19    20 ar
    36    19    26 ar
    37    20    21 ar
    38    20    42 1
    39    21    22 1
    40    21    23 ar
    41    23    24 1
    42    23    25 ar
    43    24    43 1
    44    25    26 ar
    45    25    44 1
    46    26    27 1
    47    27    45 1
@<TRIPOS>SUBSTRUCTURE
     1 BSM         1 TEMP              0 ****  ****    0 ROOT
