@<TRIPOS>MOLECULE
BSO
   32    33     1     0     0
SMALL
bcc


@<TRIPOS>ATOM
      1 C11        -0.0650    0.4590   -0.0360 c         1 BSO      0.909600
      2 O11         0.9320    1.2300   -0.1200 o         1 BSO     -0.847300
      3 O12        -0.4590   -0.0800    1.0370 o         1 BSO     -0.847300
      4 C10        -0.8360    0.1470   -1.3340 c3        1 BSO     -0.199400
      5 C9         -2.3250    0.2360   -1.1070 c3        1 BSO     -0.064400
      6 C8         -3.1060   -0.1950   -2.3310 c3        1 BSO     -0.084400
      7 C7         -4.5990   -0.0420   -2.1100 c3        1 BSO     -0.066400
      8 C2         -5.3780   -0.2800   -3.3870 c3        1 BSO     -0.075400
      9 S1         -4.7600    0.8420   -4.6260 s4        1 BSO      0.286600
     10 C6         -6.1810    1.8800   -4.6410 c3        1 BSO     -0.122100
     11 C5         -7.3850    1.1320   -4.0980 c3        1 BSO      0.070700
     12 N1         -8.2590    1.8630   -3.1850 n         1 BSO     -0.513900
     13 C3         -8.1590    1.2690   -1.8860 c         1 BSO      0.742500
     14 O3         -8.6810    1.7420   -0.8600 o         1 BSO     -0.627500
     15 N2         -7.4950    0.0110   -1.9550 n         1 BSO     -0.513900
     16 C4         -6.8940   -0.1420   -3.2750 c3        1 BSO      0.080700
     17 O10        -4.8020    0.0890   -5.9070 o         1 BSO     -0.510200
     18 H101       -0.5190    0.8600   -2.1350 hc        1 BSO      0.021200
     19 H102       -0.5570   -0.8860   -1.6600 hc        1 BSO      0.021200
     20 H9C1       -2.5940   -0.4090   -0.2280 hc        1 BSO      0.049200
     21 H9C2       -2.5980    1.2900   -0.8380 hc        1 BSO      0.049200
     22 H8C1       -2.8680   -1.2640   -2.5730 hc        1 BSO      0.030200
     23 H8C2       -2.7820    0.4230   -3.2130 hc        1 BSO      0.030200
     24 H7C1       -4.9110   -0.7810   -1.3240 hc        1 BSO      0.047700
     25 H7C2       -4.8160    0.9840   -1.7110 hc        1 BSO      0.047700
     26 H2         -5.1560   -1.3280   -3.7300 h1        1 BSO      0.108700
     27 H6C1       -6.3950    2.2340   -5.6790 h1        1 BSO      0.092700
     28 H6C2       -5.9410    2.7850   -4.0280 h1        1 BSO      0.092700
     29 H5         -8.0240    0.7780   -4.9560 h1        1 BSO      0.085700
     30 H1         -8.2090    2.8570   -3.2070 hn        1 BSO      0.303500
     31 HA         -6.9550   -0.2470   -1.1600 hn        1 BSO      0.321500
     32 H4         -7.3680   -1.0560   -3.7360 h1        1 BSO      0.082700
@<TRIPOS>BOND
     1    1    2 1
     2    1    3 1
     3    1    4 1
     4    4    5 1
     5    4   18 1
     6    4   19 1
     7    5    6 1
     8    5   20 1
     9    5   21 1
    10    6    7 1
    11    6   22 1
    12    6   23 1
    13    7    8 1
    14    7   24 1
    15    7   25 1
    16    8    9 1
    17    8   16 1
    18    8   26 1
    19    9   10 1
    20    9   17 2
    21   10   11 1
    22   10   27 1
    23   10   28 1
    24   11   12 1
    25   11   16 1
    26   11   29 1
    27   12   13 1
    28   12   30 1
    29   13   14 2
    30   13   15 1
    31   15   16 1
    32   15   31 1
    33   16   32 1
@<TRIPOS>SUBSTRUCTURE
     1 BSO         1 TEMP              0 ****  ****    0 ROOT
