@<TRIPOS>MOLECULE
molecule
   44    47     1     0     0
SMALL
bcc


@<TRIPOS>ATOM
      1 C5           0.0000     0.0000     0.0000 ca         1 BSP       0.057100
      2 C4           1.3990     0.0000     0.0000 ca         1 BSP       0.029100
      3 C3           2.0710     0.0000     1.2160 ca         1 BSP      -0.023300
      4 C8           1.3430    -0.0220     2.3920 ca         1 BSP      -0.175600
      5 C7          -0.0400    -0.0230     2.4270 ca         1 BSP       0.071100
      6 C6          -0.7150    -0.0090     1.2070 ca         1 BSP       0.013100
      7 Br6         -2.6400     0.0020     1.1890 br         1 BSP      -0.086100
      8 Br7         -0.9680    -0.0400     4.0950 br         1 BSP      -0.058100
      9 Br5         -0.9370     0.0150    -1.6810 br         1 BSP      -0.054100
     10 Br4          2.4220    -0.0250    -1.6120 br         1 BSP       0.024900
     11 C9           2.2540    -0.0720     3.5190 c          1 BSP       0.760200
     12 O1           3.5090    -0.1080     2.9800 os         1 BSP      -0.414900
     13 O9           1.9610    -0.0960     4.6980 o          1 BSP      -0.573500
     14 C2           3.5420    -0.0110     1.5100 c3         1 BSP       0.332700
     15 C1'          4.2210    -1.2540     0.9210 ca         1 BSP      -0.165300
     16 C2'          5.0030    -1.1470    -0.2300 ca         1 BSP       0.012000
     17 C3'          5.6200    -2.2770    -0.7650 ca         1 BSP      -0.263000
     18 C4'          5.4560    -3.5170    -0.1490 ca         1 BSP       0.228600
     19 C5'          4.6760    -3.6280     1.0020 ca         1 BSP      -0.246000
     20 C6'          4.0590    -2.4970     1.5360 ca         1 BSP      -0.048500
     21 O4'          6.0510    -4.6350    -0.6540 oh         1 BSP      -0.479600
     22 S1'          6.5960    -2.1130    -2.2080 s6         1 BSP       1.293100
     23 OS1          6.7410    -0.6660    -2.4280 o          1 BSP      -0.699033
     24 OS2          5.8010    -2.7920    -3.2420 o          1 BSP      -0.699033
     25 OS3          7.8540    -2.7870    -1.8580 o          1 BSP      -0.699033
     26 C1B          4.3190     1.2830     1.2470 ca         1 BSP      -0.165300
     27 C2B          3.7260     2.3230     0.5300 ca         1 BSP       0.012000
     28 C3B          4.4350     3.5020     0.2910 ca         1 BSP      -0.263000
     29 C4B          5.7380     3.6400     0.7690 ca         1 BSP       0.228600
     30 C5B          6.3320     2.6030     1.4860 ca         1 BSP      -0.246000
     31 C6B          5.6240     1.4240     1.7240 ca         1 BSP      -0.048500
     32 O4B          6.4480     4.7820     0.5470 oh         1 BSP      -0.479600
     33 S1B          3.6660     4.7900    -0.6100 s6         1 BSP       1.293100
     34 OSA          2.2530     4.4020    -0.7330 o          1 BSP      -0.699033
     35 OSB          4.3920     4.7990    -1.8880 o          1 BSP      -0.699033
     36 OSC          3.8810     5.9780     0.2290 o          1 BSP      -0.699033
     37 H2'          5.1300    -0.1830    -0.7090 ha         1 BSP       0.173000
     38 H5'          4.5490    -4.5910     1.4800 ha         1 BSP       0.115000
     39 H6'          3.4530    -2.5830     2.4300 ha         1 BSP       0.123000
     40 H4'          5.4630    -5.3680    -0.5700 ho         1 BSP       0.403500
     41 H2B          2.7140     2.2160     0.1590 ha         1 BSP       0.173000
     42 H5B          7.3440     2.7110     1.8570 ha         1 BSP       0.115000
     43 H6B          6.0860     0.6190     2.2820 ha         1 BSP       0.123000
     44 H4B          6.8610     5.0570     1.3490 ho         1 BSP       0.403500
@<TRIPOS>BOND
     1     1     2 ar
     2     1     6 ar
     3     1     9 1
     4     2     3 ar
     5     2    10 1
     6     3     4 ar
     7     3    14 1
     8     4     5 ar
     9     4    11 1
    10     5     6 ar
    11     5     8 1
    12     6     7 1
    13    11    12 1
    14    11    13 2
    15    12    14 1
    16    14    15 1
    17    14    26 1
    18    15    16 ar
    19    15    20 ar
    20    16    17 ar
    21    16    37 1
    22    17    18 ar
    23    17    22 1
    24    18    19 ar
    25    18    21 1
    26    19    20 ar
    27    19    38 1
    28    20    39 1
    29    21    40 1
    30    22    23 1
    31    22    24 1
    32    22    25 1
    33    26    27 ar
    34    26    31 ar
    35    27    28 ar
    36    27    41 1
    37    28    29 ar
    38    28    33 1
    39    29    30 ar
    40    29    32 1
    41    30    31 ar
    42    30    42 1
    43    31    43 1
    44    32    44 1
    45    33    34 1
    46    33    35 1
    47    33    36 1
@<TRIPOS>SUBSTRUCTURE
     1 BSP         1 TEMP              0 ****  ****    0 ROOT
