@<TRIPOS>MOLECULE
BSP
   44    47     1     0     0
SMALL
bcc


@<TRIPOS>ATOM
      1 C5          0.1840    0.0930   -0.4060 ca        1 BSP      0.034100
      2 C4          1.5930    0.1030   -0.3130 ca        1 BSP      0.018100
      3 C3          2.1630    0.0670    0.9540 ca        1 BSP     -0.023300
      4 C8          1.3430    0.0220    2.1100 ca        1 BSP     -0.136600
      5 C7         -0.0390    0.0140    2.0220 ca        1 BSP      0.063100
      6 C6         -0.6190    0.0490    0.7380 ca        1 BSP     -0.009900
      7 BR6        -2.4840    0.0310    0.5710 br        1 BSP     -0.065100
      8 BR7        -1.1320   -0.0440    3.5350 br        1 BSP     -0.047100
      9 BR5        -0.6230    0.1350   -2.0950 br        1 BSP     -0.044100
     10 BR4         2.6220    0.1530   -1.8620 br        1 BSP      0.031900
     11 C9          2.2410   -0.0210    3.2910 c         1 BSP      0.736200
     12 O1          3.5500    0.0020    2.8760 os        1 BSP     -0.396900
     13 O9          2.0450   -0.0930    4.5000 o         1 BSP     -0.579500
     14 C2          3.6330    0.0310    1.3840 c3        1 BSP      0.339700
     15 C1'         4.2600   -1.2710    0.9650 ca        1 BSP     -0.186300
     16 C2'         5.0490   -1.3930   -0.1830 ca        1 BSP      0.017500
     17 C3'         5.5870   -2.6160   -0.5960 ca        1 BSP     -0.362000
     18 C4'         5.3150   -3.7470    0.1880 ca        1 BSP      0.249600
     19 C5'         4.5400   -3.6460    1.3650 ca        1 BSP     -0.214000
     20 C6'         4.0230   -2.4190    1.7400 ca        1 BSP     -0.045500
     21 O4'         5.7550   -5.0150   -0.0800 oh        1 BSP     -0.542100
     22 S1'         6.5700   -2.5880   -2.0690 s6        1 BSP      1.467600
     23 OS1         5.8730   -1.7700   -2.9800 o         1 BSP     -0.745867
     24 OS2         6.6290   -3.9580   -2.4630 o         1 BSP     -0.745867
     25 OS3         7.8270   -2.0850   -1.6800 o         1 BSP     -0.745867
     26 C1B         4.3780    1.2900    1.0620 ca        1 BSP     -0.186300
     27 C2B         3.7020    2.5070    0.9220 ca        1 BSP      0.017500
     28 C3B         4.3650    3.7180    0.7130 ca        1 BSP     -0.362000
     29 C4B         5.7680    3.6840    0.6530 ca        1 BSP      0.249600
     30 C5B         6.4740    2.4670    0.7910 ca        1 BSP     -0.214000
     31 C6B         5.7810    1.2880    1.0010 ca        1 BSP     -0.045500
     32 O4B         6.5650    4.7800    0.4710 oh        1 BSP     -0.542100
     33 S1B         3.3510    5.1550    0.5580 s6        1 BSP      1.467600
     34 OSA         2.3090    4.9890    1.4970 o         1 BSP     -0.745867
     35 OSB         2.9030    5.1860   -0.7790 o         1 BSP     -0.745867
     36 OSC         4.2350    6.2330    0.8630 o         1 BSP     -0.745867
     37 H2'         5.2580   -0.4990   -0.8020 ha        1 BSP      0.152000
     38 H5'         4.3580   -4.5450    1.9670 ha        1 BSP      0.132000
     39 H6'         3.4260   -2.3410    2.6620 ha        1 BSP      0.133000
     40 H4'         6.2100   -5.0370   -0.9440 ho        1 BSP      0.476000
     41 H2B         2.6000    2.5350    0.9950 ha        1 BSP      0.152000
     42 H5B         7.5700    2.4740    0.7280 ha        1 BSP      0.132000
     43 H6B         6.3360    0.3440    1.1300 ha        1 BSP      0.133000
     44 H4B         6.0220    5.5920    0.4820 ho        1 BSP      0.476000
@<TRIPOS>BOND
     1    1    2 ar  
     2    1    6 ar  
     3    1    9 1   
     4    2    3 ar  
     5    2   10 1   
     6    3    4 ar  
     7    3   14 1   
     8    4    5 ar  
     9    4   11 1   
    10    5    6 ar  
    11    5    8 1   
    12    6    7 1   
    13   11   12 1   
    14   11   13 2   
    15   12   14 1   
    16   14   15 1   
    17   14   26 1   
    18   15   16 ar  
    19   15   20 ar  
    20   16   17 ar  
    21   16   37 1   
    22   17   18 ar  
    23   17   22 1   
    24   18   19 ar  
    25   18   21 1   
    26   19   20 ar  
    27   19   38 1   
    28   20   39 1   
    29   21   40 1   
    30   22   23 1   
    31   22   24 1   
    32   22   25 1   
    33   26   27 ar  
    34   26   31 ar  
    35   27   28 ar  
    36   27   41 1   
    37   28   29 ar  
    38   28   33 1   
    39   29   30 ar  
    40   29   32 1   
    41   30   31 ar  
    42   30   42 1   
    43   31   43 1   
    44   32   44 1   
    45   33   34 1   
    46   33   35 1   
    47   33   36 1   
@<TRIPOS>SUBSTRUCTURE
     1 BSP         1 TEMP              0 ****  ****    0 ROOT
