@<TRIPOS>MOLECULE
BST
   61    62     1     0     0
SMALL
bcc


@<TRIPOS>ATOM
      1 O4           0.0000     0.0000     0.0000 o          1 BST      -0.854300
      2 N1           5.5740    -0.8630     1.9740 n          1 BST       0.034000
      3 C2           6.1930     0.2840     1.6600 c          1 BST       0.612500
      4 O2           5.5360     1.3010     1.5580 o          1 BST      -0.596500
      5 N3           7.5260     0.3400     1.4630 ns         1 BST      -0.204900
      6 C4           8.3050    -0.9020     1.5900 c3         1 BST       0.302600
      7 C5           7.5420    -2.1630     1.9420 c2         1 BST      -0.449200
      8 C6           6.2360    -2.0720     2.1110 c2         1 BST       0.035600
      9 C1'          4.1240    -0.8370     2.1770 c3         1 BST       0.265700
     10 C2'          3.8080     0.0000     3.3830 c2         1 BST      -0.219200
     11 C3'          2.7780     0.7980     3.4280 c2         1 BST      -0.104200
     12 C4'          1.8410     0.9240     2.2540 c3         1 BST       0.017900
     13 C5'          2.0950    -0.2340     1.2840 c3         1 BST       0.057100
     14 O5'          3.4970    -0.3030     1.0130 os         1 BST      -0.315600
     15 O3           1.9460     0.1870    -1.0290 o          1 BST      -0.854300
     16 C6'          1.3420     0.0000     0.0000 c          1 BST       0.964600
     17 N6           0.4550     0.8730     2.7270 ns         1 BST      -0.012900
     18 C7          -0.1510     1.9970     3.1600 c          1 BST       0.534100
     19 O7           0.4510     3.0490     3.1590 o          1 BST      -0.726100
     20 C8          -1.5760     1.9440     3.6460 c3         1 BST      -0.119400
     21 C9          -2.0200     3.3430     4.0770 c3         1 BST      -0.033500
     22 N9          -2.0400     4.2330     2.9080 nz         1 BST       0.032400
     23 C10         -3.4220     3.2690     4.6860 c3         1 BST      -0.079400
     24 C11         -3.8150     4.6430     5.2310 c3         1 BST       0.167800
     25 N12         -5.1580     4.5720     5.8130 nh         1 BST      -0.463600
     26 C13         -5.3250     4.2360     7.2300 c3         1 BST       0.187100
     27 C14         -6.2600     4.8220     5.0310 c2         1 BST       0.281100
     28 N14         -6.1120     5.1210     3.7720 n2         1 BST      -0.607100
     29 N15         -7.5200     4.7550     5.5780 nz         1 BST       0.187400
     30 N4           9.3280    -0.6910     2.6230 nz         1 BST      -0.043600
     31 O6           8.9770    -1.1270     0.3500 oh         1 BST      -0.549800
     32 HN3          7.9730     1.2050     1.2300 hn         1 BST       0.228500
     33 H5           8.0050    -3.1320     1.8010 ha         1 BST       0.169000
     34 H6           5.6710    -2.9610     2.3650 h4         1 BST       0.146000
     35 H1'          3.7640    -1.8450     2.3420 h2         1 BST       0.033700
     36 H2'          4.4590    -0.0630     4.2470 ha         1 BST       0.100000
     37 H3'          2.5940     1.3810     4.3230 ha         1 BST       0.102000
     38 H4'          2.0220     1.8640     1.7480 h1         1 BST       0.096700
     39 H5'          1.7690    -1.1620     1.7370 h1         1 BST       0.011700
     40 HN6         -0.0310    -0.0010     2.7570 hn         1 BST       0.191500
     41 H81         -1.6450     1.2670     4.4900 hc         1 BST       0.066200
     42 H82         -2.2180     1.5910     2.8470 hc         1 BST       0.066200
     43 H9          -1.3260     3.7310     4.8140 hx         1 BST       0.107700
     44 HN91        -2.1680     5.1780     3.2110 hn         1 BST       0.241467
     45 HN92        -2.7940     3.9720     2.3030 hn         1 BST       0.241467
     46 H101        -3.4280     2.5450     5.4920 hc         1 BST       0.056200
     47 H102        -4.1310     2.9660     3.9240 hc         1 BST       0.056200
     48 H111        -3.1070     4.9460     5.9930 h1         1 BST       0.040700
     49 H112        -3.8090     5.3670     4.4250 h1         1 BST       0.040700
     50 H131        -5.7980     5.0630     7.7440 h1         1 BST       0.034033
     51 H132        -5.9440     3.3520     7.3200 h1         1 BST       0.034033
     52 H133        -4.3550     4.0430     7.6720 h1         1 BST       0.034033
     53 H14         -5.1960     5.1700     3.3720 hn         1 BST       0.358400
     54 H151        -7.6790     3.8350     5.9400 hn         1 BST       0.233800
     55 H152        -8.2010     4.9570     4.8720 hn         1 BST       0.233800
     56 HN41         9.9530     0.0340     2.3300 hn         1 BST       0.240133
     57 HN42         8.8860    -0.4240     3.4810 hn         1 BST       0.240133
     58 HO6          9.3510    -1.9930     0.3470 ho         1 BST       0.430000
     59 H93         -1.1740     4.1520     2.4130 hn         1 BST       0.241467
     60 H153        -7.5970     5.4190     6.3220 hn         1 BST       0.233800
     61 H43          9.8410    -1.5390     2.7630 hn         1 BST       0.240133
@<TRIPOS>BOND
     1     1    16 1   
     2     2     3 1   
     3     2     8 1   
     4     2     9 1   
     5     3     4 2   
     6     3     5 1   
     7     5     6 1   
     8     5    32 1   
     9     6     7 1   
    10     6    30 1   
    11     6    31 1   
    12     7     8 2   
    13     7    33 1   
    14     8    34 1   
    15     9    10 1   
    16     9    14 1   
    17     9    35 1   
    18    10    11 2   
    19    10    36 1   
    20    11    12 1   
    21    11    37 1   
    22    12    13 1   
    23    12    17 1   
    24    12    38 1   
    25    13    14 1   
    26    13    16 1   
    27    13    39 1   
    28    15    16 1   
    29    17    18 1   
    30    17    40 1   
    31    18    19 2   
    32    18    20 1   
    33    20    21 1   
    34    20    41 1   
    35    20    42 1   
    36    21    22 1   
    37    21    23 1   
    38    21    43 1   
    39    22    44 1   
    40    22    45 1   
    41    22    59 1   
    42    23    24 1   
    43    23    46 1   
    44    23    47 1   
    45    24    25 1   
    46    24    48 1   
    47    24    49 1   
    48    25    26 1   
    49    25    27 1   
    50    26    50 1   
    51    26    51 1   
    52    26    52 1   
    53    27    28 2   
    54    27    29 1   
    55    28    53 1   
    56    29    54 1   
    57    29    55 1   
    58    29    60 1   
    59    30    56 1   
    60    30    57 1   
    61    30    61 1   
    62    31    58 1   
@<TRIPOS>SUBSTRUCTURE
     1 BST         1 TEMP              0 ****  ****    0 ROOT
