@<TRIPOS>MOLECULE
molecule
   61    62     1     0     0
SMALL
bcc


@<TRIPOS>ATOM
      1 O4           0.0000     0.0000     0.0000 o          1 BST      -0.800300
      2 N1           5.5740    -0.8630     1.9740 n          1 BST      -0.366000
      3 C2           6.1930     0.2840     1.6600 c          1 BST       0.821500
      4 O2           5.5360     1.3010     1.5580 o          1 BST      -0.557500
      5 N3           7.5260     0.3400     1.4630 ns         1 BST      -0.581900
      6 C4           8.3050    -0.9020     1.5900 c3         1 BST       0.556600
      7 C5           7.5420    -2.1630     1.9420 c2         1 BST      -0.433200
      8 C6           6.2360    -2.0720     2.1110 c2         1 BST       0.129600
      9 C1'          4.1240    -0.8370     2.1770 c3         1 BST       0.344700
     10 C2'          3.8080     0.0000     3.3830 c2         1 BST      -0.232200
     11 C3'          2.7780     0.7980     3.4280 c2         1 BST      -0.132200
     12 C4'          1.8410     0.9240     2.2540 c3         1 BST       0.125900
     13 C5'          2.0950    -0.2340     1.2840 c3         1 BST       0.019100
     14 O5'          3.4970    -0.3030     1.0130 os         1 BST      -0.333600
     15 O3           1.9460     0.1870    -1.0290 o          1 BST      -0.800300
     16 C6'          1.3420     0.0000     0.0000 c          1 BST       0.892600
     17 N6           0.4550     0.8730     2.7270 ns         1 BST      -0.486900
     18 C7          -0.1510     1.9970     3.1600 c          1 BST       0.645100
     19 O7           0.4510     3.0490     3.1590 o          1 BST      -0.670100
     20 C8          -1.5760     1.9440     3.6460 c3         1 BST      -0.196400
     21 C9          -2.0200     3.3430     4.0770 c3         1 BST       0.135500
     22 N9          -2.0400     4.2330     2.9080 nz         1 BST      -0.806600
     23 C10         -3.4220     3.2690     4.6860 c3         1 BST      -0.143400
     24 C11         -3.8150     4.6430     5.2310 c3         1 BST       0.238800
     25 N12         -5.1580     4.5720     5.8130 nh         1 BST      -0.766600
     26 C13         -5.3250     4.2360     7.2300 c3         1 BST       0.196100
     27 C14         -6.2600     4.8220     5.0310 c2         1 BST       0.716100
     28 N14         -6.1120     5.1210     3.7720 n2         1 BST      -0.829100
     29 N15         -7.5200     4.7550     5.5780 nz         1 BST      -0.837600
     30 N4           9.3280    -0.6910     2.6230 nz         1 BST      -0.858600
     31 O6           8.9770    -1.1270     0.3500 oh         1 BST      -0.565800
     32 HN3          7.9730     1.2050     1.2300 hn         1 BST       0.376500
     33 H5           8.0540    -3.1110     2.0500 ha         1 BST       0.181000
     34 H6           5.6710    -2.9610     2.3670 h4         1 BST       0.187000
     35 H1'          3.7640    -1.8450     2.3420 h2         1 BST       0.066700
     36 H2'          4.4590    -0.0630     4.2470 ha         1 BST       0.122000
     37 H3'          2.5940     1.3820     4.3220 ha         1 BST       0.128000
     38 H4'          2.0220     1.8640     1.7480 h1         1 BST       0.123700
     39 H5'          1.7690    -1.1620     1.7370 h1         1 BST       0.036700
     40 HN6         -0.0280    -0.0020     2.7650 hn         1 BST       0.343500
     41 H81         -2.2180     1.5910     2.8470 hc         1 BST       0.103700
     42 H82         -1.6450     1.2670     4.4900 hc         1 BST       0.103700
     43 H9          -1.3260     3.7310     4.8140 hx         1 BST       0.127700
     44 HN91        -2.9790     4.5330     2.7340 hn         1 BST       0.465133
     45 HN92        -1.6940     3.7410     2.1090 hn         1 BST       0.465133
     46 H101        -4.1310     2.9660     3.9240 hc         1 BST       0.089700
     47 H102        -3.4280     2.5450     5.4920 hc         1 BST       0.089700
     48 H111        -3.1070     4.9460     5.9930 h1         1 BST       0.079200
     49 H112        -3.8090     5.3670     4.4250 h1         1 BST       0.079200
     50 H131        -4.3510     4.1070     7.6880 h1         1 BST       0.069700
     51 H132        -5.8570     5.0350     7.7310 h1         1 BST       0.069700
     52 H133        -5.8890     3.3150     7.3180 h1         1 BST       0.069700
     53 H14         -6.9140     5.3020     3.2010 hn         1 BST       0.453400
     54 H151        -7.6830     3.8320     5.9290 hn         1 BST       0.487800
     55 H152        -8.2000     4.9690     4.8750 hn         1 BST       0.487800
     56 HN41         9.8560    -1.5320     2.7470 hn         1 BST       0.455133
     57 HN42         9.9400     0.0480     2.3390 hn         1 BST       0.455133
     58 HO6          9.1760    -2.0450     0.2620 ho         1 BST       0.451000
     59 H93         -1.4590     5.0280     3.0840 hn         1 BST       0.465133
     60 H153        -7.8060     5.6680     5.8700 hn         1 BST       0.487800
     61 H43          8.8860    -0.4230     3.4800 hn         1 BST       0.455133
@<TRIPOS>BOND
     1     1    16 1
     2     2     3 1
     3     2     8 1
     4     2     9 1
     5     3     4 2
     6     3     5 1
     7     5     6 1
     8     5    32 1
     9     6     7 1
    10     6    30 1
    11     6    31 1
    12     7     8 2
    13     7    33 1
    14     8    34 1
    15     9    10 1
    16     9    14 1
    17     9    35 1
    18    10    11 2
    19    10    36 1
    20    11    12 1
    21    11    37 1
    22    12    13 1
    23    12    17 1
    24    12    38 1
    25    13    14 1
    26    13    16 1
    27    13    39 1
    28    15    16 1
    29    17    18 1
    30    17    40 1
    31    18    19 2
    32    18    20 1
    33    20    21 1
    34    20    41 1
    35    20    42 1
    36    21    22 1
    37    21    23 1
    38    21    43 1
    39    22    44 1
    40    22    45 1
    41    23    24 1
    42    23    46 1
    43    23    47 1
    44    24    25 1
    45    24    48 1
    46    24    49 1
    47    25    26 1
    48    25    27 1
    49    26    50 1
    50    26    51 1
    51    26    52 1
    52    27    28 2
    53    27    29 1
    54    28    53 1
    55    29    54 1
    56    29    55 1
    57    30    56 1
    58    30    57 1
    59    31    58 1
    60    59    22 1
    61    60    29 1
    62    61    30 1
@<TRIPOS>SUBSTRUCTURE
     1 BST         1 TEMP              0 ****  ****    0 ROOT
