@<TRIPOS>MOLECULE
BSU
   28    29     1     0     0
SMALL
bcc


@<TRIPOS>ATOM
      1 N7           0.0000     0.0000     0.0000 ns         1 BSU      -0.052600
      2 C8           1.3470     0.0000     0.0000 c          1 BSU       0.553100
      3 N9           2.0210     0.0000     1.1670 ns         1 BSU      -0.052600
      4 O11          1.9550    -0.0050    -1.0520 o          1 BSU      -0.680100
      5 C5          -0.6990     0.1070    -1.2070 ca         1 BSU      -0.074900
      6 C4          -1.9090    -0.5550    -1.3720 ca         1 BSU      -0.119000
      7 C3          -2.5970    -0.4470    -2.5630 ca         1 BSU      -0.082250
      8 C2          -2.0840     0.3200    -3.5930 ca         1 BSU      -0.117000
      9 C1          -0.8790     0.9810    -3.4320 ca         1 BSU      -0.082250
     10 C6          -0.1890     0.8800    -2.2390 ca         1 BSU      -0.119000
     11 C10          3.4150    -0.1250     1.1700 ca         1 BSU      -0.074900
     12 C16          4.1690     0.5180     2.1420 ca         1 BSU      -0.119000
     13 C15          5.5450     0.3930     2.1430 ca         1 BSU      -0.082250
     14 C14          6.1700    -0.3730     1.1780 ca         1 BSU      -0.117000
     15 C13          5.4220    -1.0160     0.2090 ca         1 BSU      -0.082250
     16 C12          4.0460    -0.8990     0.2060 ca         1 BSU      -0.119000
     17 H22         -0.5000    -0.0520     0.8650 hn         1 BSU       0.160500
     18 H23          1.5230     0.0730     2.0320 hn         1 BSU       0.160500
     19 H41         -2.3130    -1.1560    -0.5650 ha         1 BSU       0.122250
     20 H31         -3.5410    -0.9630    -2.6920 ha         1 BSU       0.102500
     21 H21         -2.6240     0.4010    -4.5280 ha         1 BSU       0.102000
     22 H11         -0.4800     1.5820    -4.2400 ha         1 BSU       0.102500
     23 H61          0.7540     1.3980    -2.1130 ha         1 BSU       0.122250
     24 H161         3.6790     1.1190     2.8980 ha         1 BSU       0.122250
     25 H151         6.1330     0.8950     2.9010 ha         1 BSU       0.102500
     26 H141         7.2500    -0.4690     1.1790 ha         1 BSU       0.102000
     27 H131         5.9150    -1.6180    -0.5450 ha         1 BSU       0.102500
     28 H121         3.4600    -1.4020    -0.5540 ha         1 BSU       0.122250
@<TRIPOS>BOND
     1     1     2 1   
     2     1     5 1   
     3     1    17 1   
     4     2     3 1   
     5     2     4 2   
     6     3    11 1   
     7     3    18 1   
     8     5     6 ar  
     9     5    10 ar  
    10     6     7 ar  
    11     6    19 1   
    12     7     8 ar  
    13     7    20 1   
    14     8     9 ar  
    15     8    21 1   
    16     9    10 ar  
    17     9    22 1   
    18    10    23 1   
    19    11    12 ar  
    20    11    16 ar  
    21    12    13 ar  
    22    12    24 1   
    23    13    14 ar  
    24    13    25 1   
    25    14    15 ar  
    26    14    26 1   
    27    15    16 ar  
    28    15    27 1   
    29    16    28 1   
@<TRIPOS>SUBSTRUCTURE
     1 BSU         1 TEMP              0 ****  ****    0 ROOT
