@<TRIPOS>MOLECULE
molecule
   31    32     1     0     0
SMALL
bcc


@<TRIPOS>ATOM
      1 C10          0.0000     0.0000     0.0000 ce         1 BSV      -0.357200
      2 C13         -2.1570     0.0060     1.1740 c          1 BSV       0.848800
      3 C17          1.6030    -0.8470    -5.9990 cx         1 BSV      -0.143400
      4 C02          3.5970    -0.1110    -1.2880 ca         1 BSV      -0.038300
      5 C03          4.2800    -0.1040    -2.4870 ca         1 BSV      -0.153000
      6 C04          3.5900     0.0260    -3.6800 ca         1 BSV      -0.121000
      7 C05          2.2110     0.1480    -3.6790 ca         1 BSV      -0.079300
      8 C06          1.5150     0.1410    -2.4880 ca         1 BSV      -0.073000
      9 C07          2.2050     0.0070    -1.2810 ca         1 BSV      -0.148600
     10 C08          1.4660     0.0000     0.0000 c          1 BSV       0.575900
     11 C11         -0.6760     0.0000     1.1730 cf         1 BSV       0.140900
     12 C16          1.4670     0.2890    -4.9830 cx         1 BSV      -0.071400
     13 C18          2.2990     0.4920    -6.2510 cx         1 BSV      -0.143400
     14 O09          2.0750    -0.0060     1.0530 o          1 BSV      -0.556100
     15 O12          0.0010    -0.0080     2.3440 oh         1 BSV      -0.504100
     16 O14         -2.8310     0.0050     2.3400 o          1 BSV      -0.818300
     17 O15         -2.7640     0.0130     0.1220 o          1 BSV      -0.818300
     18 H1          -0.5420     0.0050    -0.9380 ha         1 BSV       0.157000
     19 H3           2.2510    -1.6630    -5.7040 hc         1 BSV       0.071700
     20 H4           0.7260    -1.0390    -6.6050 hc         1 BSV       0.071700
     21 H5           4.2080     0.6400     0.6080 hc         1 BSV       0.047700
     22 H6           3.9800    -1.1140     0.5500 hc         1 BSV       0.047700
     23 H7           5.4060    -0.3810    -0.1990 hc         1 BSV       0.047700
     24 H8           5.3590    -0.1980    -2.4950 ha         1 BSV       0.121000
     25 H9           4.1310     0.0300    -4.6180 ha         1 BSV       0.119000
     26 H10          0.4450     0.3060    -2.4840 ha         1 BSV       0.155000
     27 H12          0.5060     0.7880    -4.9860 hc         1 BSV       0.088700
     28 H13          1.8480     1.1180    -7.0110 hc         1 BSV       0.071700
     29 H14          3.3730     0.4940    -6.1110 hc         1 BSV       0.071700
     30 H15         -0.2590     0.7360     2.8620 ho         1 BSV       0.430000
     31 C01          4.3500    -0.2510     0.0090 c3         1 BSV      -0.039800
@<TRIPOS>BOND
     1    13    12 1
     2    13     3 1
     3    12     3 1
     4    12     7 1
     5    14    10 2
     6     8     7 ar
     7     8     9 ar
     8     7     6 ar
     9    15    11 1
    10    10     9 1
    11    10     1 1
    12     9     4 ar
    13     6     5 ar
    14     5     4 ar
    15     4    31 1
    16    11     1 2
    17    11     2 1
    18    17     2 1
    19     2    16 1
    20     1    18 1
    21     3    19 1
    22     3    20 1
    23    31    21 1
    24    31    22 1
    25    31    23 1
    26     5    24 1
    27     6    25 1
    28     8    26 1
    29    12    27 1
    30    13    28 1
    31    13    29 1
    32    15    30 1
@<TRIPOS>SUBSTRUCTURE
     1 BSV         1 TEMP              0 ****  ****    0 ROOT
