@<TRIPOS>MOLECULE
molecule
   24    26     1     0     0
SMALL
bcc


@<TRIPOS>ATOM
      1 C10          0.0000     0.0000     0.0000 cp         1 BSW      -0.041000
      2 C15          1.4010     0.0000     0.0000 ca         1 BSW       0.022600
      3 C01          0.0140    -2.3790    -2.1430 cc         1 BSW      -0.189200
      4 C02         -0.3220    -3.0210    -3.2740 cd         1 BSW      -0.090100
      5 C04         -1.4300    -1.0680    -3.3520 ca         1 BSW       0.469800
      6 C05         -0.6930    -1.1000    -2.1540 ca         1 BSW      -0.201100
      7 C06         -0.7610    -0.0060    -1.2720 cp         1 BSW       0.031000
      8 C07         -1.5680     1.0710    -1.6330 ca         1 BSW      -0.266300
      9 C08         -2.2630     1.0250    -2.8290 ca         1 BSW       0.447200
     10 C11         -0.6610     0.0010     1.2320 ca         1 BSW      -0.215300
     11 C12          0.0870     0.0000     2.3930 ca         1 BSW       0.401200
     12 C14          2.0690     0.0000     1.2100 ca         1 BSW       0.385200
     13 F16          2.0880    -0.0010    -1.1640 f          1 BSW      -0.124900
     14 N03         -1.1880    -2.2520    -4.0050 na         1 BSW      -0.280100
     15 N09         -2.1810    -0.0110    -3.6380 nb         1 BSW      -0.709000
     16 N13          1.4060     0.0010     2.3500 nb         1 BSW      -0.666000
     17 H2           0.0370    -4.0010    -3.5640 h4         1 BSW       0.172000
     18 H3          -1.6520     1.9350    -0.9850 ha         1 BSW       0.143000
     19 H4          -2.8900     1.8630    -3.1080 h4         1 BSW       0.026100
     20 H5          -1.7430     0.0000     1.2760 ha         1 BSW       0.150000
     21 H6          -0.4160     0.0010     3.3520 h4         1 BSW       0.029100
     22 H7           3.1520     0.0000     1.2220 h4         1 BSW       0.037100
     23 H8          -1.5820    -2.5120    -4.8880 hn         1 BSW       0.306700
     24 H1           0.6820    -2.7400    -1.3700 ha         1 BSW       0.160000
@<TRIPOS>BOND
     1     4    14 1
     2     4     3 2
     3    14     5 1
     4     3     6 1
     5     5     6 ar
     6     5    15 ar
     7     6     7 ar
     8    15     9 ar
     9     7     1 1
    10     7     8 ar
    11     1    10 ar
    12     1     2 ar
    13    10    11 ar
    14    13     2 1
    15     2    12 ar
    16    11    16 ar
    17    12    16 ar
    18     9     8 ar
    19     3    24 1
    20     4    17 1
    21     8    18 1
    22     9    19 1
    23    10    20 1
    24    11    21 1
    25    12    22 1
    26    14    23 1
@<TRIPOS>SUBSTRUCTURE
     1 BSW         1 TEMP              0 ****  ****    0 ROOT
