@<TRIPOS>MOLECULE
BSX
   21    21     1     0     0
SMALL
bcc


@<TRIPOS>ATOM
      1 C7           0.0000     0.0000     0.0000 ca         1 BSX      -0.092000
      2 C9           1.3820     0.0000     0.0000 ca         1 BSX      -0.038000
      3 C4          -0.6920     0.0000     1.1970 ca         1 BSX      -0.059000
      4 C6           2.0750     0.0000     1.1960 ca         1 BSX      -0.110000
      5 C1          -0.0010     0.0010     2.3950 ca         1 BSX      -0.174300
      6 C3           1.3830     0.0000     2.3950 ca         1 BSX       0.111900
      7 C2          -0.7560     0.0000     3.6990 c3         1 BSX       0.045900
      8 C5          -0.7940    -1.4200     4.2660 c3         1 BSX      -0.058200
      9 N8          -1.5300    -1.4200     5.5380 nz         1 BSX       0.086400
     10 F10          2.0590    -0.0000     3.5650 f          1 BSX      -0.128900
     11 H1          -0.5410    -0.0000    -0.9380 ha         1 BSX       0.123000
     12 H2           1.9230    -0.0000    -0.9390 ha         1 BSX       0.123000
     13 H3          -1.7750     0.0010     1.1970 ha         1 BSX       0.110000
     14 H4           3.1580    -0.0000     1.1950 ha         1 BSX       0.135000
     15 H5          -1.7670     0.3500     3.5320 hc         1 BSX       0.037700
     16 H6          -0.2590     0.6570     4.4040 hc         1 BSX       0.037700
     17 H7           0.2170    -1.7700     4.4330 hx         1 BSX       0.090200
     18 H8          -1.2910    -2.0760     3.5610 hx         1 BSX       0.090200
     19 H9          -2.4800    -1.1500     5.3740 hn         1 BSX       0.223467
     20 H10         -1.5090    -2.3390     5.9350 hn         1 BSX       0.223467
     21 H83         -1.1030    -0.7730     6.1700 hn         1 BSX       0.223467
@<TRIPOS>BOND
     1     1     2 ar  
     2     1     3 ar  
     3     1    11 1   
     4     2     4 ar  
     5     2    12 1   
     6     3     5 ar  
     7     3    13 1   
     8     4     6 ar  
     9     4    14 1   
    10     5     6 ar  
    11     5     7 1   
    12     6    10 1   
    13     7     8 1   
    14     7    15 1   
    15     7    16 1   
    16     8     9 1   
    17     8    17 1   
    18     8    18 1   
    19     9    19 1   
    20     9    20 1   
    21     9    21 1   
@<TRIPOS>SUBSTRUCTURE
     1 BSX         1 TEMP              0 ****  ****    0 ROOT
