@<TRIPOS>MOLECULE
molecule
    5     4     1     0     0
SMALL
bcc


@<TRIPOS>ATOM
      1 O1           0.0000     0.0000     0.0000 o          1 BSY      -0.420400
      2 O2           2.0280     0.0000     1.7760 oh         1 BSY      -0.582800
      3 O3           2.0030    -1.6050    -0.3890 o          1 BSY      -0.420400
      4 SE           1.6820     0.0000     0.0000 s4         1 BSY       0.068600
      5 H2           2.6270     0.6990     1.9790 ho         1 BSY       0.354000
@<TRIPOS>BOND
     1     1     4 1
     2     2     4 1
     3     3     4 1
     4     2     5 1
@<TRIPOS>SUBSTRUCTURE
     1 BSY         1 TEMP              0 ****  ****    0 ROOT
