@<TRIPOS>MOLECULE
BSY
    5     4     1     0     0
SMALL
bcc


@<TRIPOS>ATOM
      1 O1          0.1850   -0.4570    0.3560 o         1 BSY     -0.565400
      2 O2          2.1260    0.5710    1.4690 oh        1 BSY     -0.684800
      3 O3          2.4010   -0.9900   -0.4150 o         1 BSY     -0.565400
      4 SE          1.4820    0.1520   -0.0900 s4        1 BSY      0.425600
      5 H2          2.1460   -0.1830    2.0460 ho        1 BSY      0.389000
@<TRIPOS>BOND
     1    1    4 1   
     2    2    4 1   
     3    2    5 1   
     4    3    4 1   
@<TRIPOS>SUBSTRUCTURE
     1 BSY         1 TEMP              0 ****  ****    0 ROOT
