@<TRIPOS>MOLECULE
BSZ
   19    19     1     0     0
SMALL
bcc


@<TRIPOS>ATOM
      1 S          -0.0580    0.0750   -0.0270 s6        1 BSZ      1.461100
      2 CL          4.6880   -0.0440   -2.6640 cl        1 BSZ     -0.124400
      3 CG          1.7220    0.0280   -0.0040 ca        1 BSZ     -0.272500
      4 CH          6.5830    0.0050    1.2580 c3        1 BSZ      0.120700
      5 OH          5.9150   -0.0290    0.0060 os        1 BSZ     -0.328900
      6 CZ          4.5280   -0.0120    0.0570 ca        1 BSZ      0.127100
      7 OB1        -0.4130   -0.5460   -1.2460 o         1 BSZ     -0.743533
      8 OB2        -0.4390   -0.6420    1.1300 o         1 BSZ     -0.743533
      9 CD1         2.4060    0.0210    1.2080 ca        1 BSZ     -0.012000
     10 CD2         2.4500    0.0020   -1.1910 ca        1 BSZ     -0.010000
     11 CE1         3.8000    0.0030    1.2530 ca        1 BSZ     -0.232000
     12 CE2         3.8490   -0.0160   -1.1770 ca        1 BSZ     -0.037600
     13 OXT        -0.3840    1.4470    0.0290 o         1 BSZ     -0.743533
     14 HH          6.3270    0.9340    1.8230 h1        1 BSZ      0.034367
     15 HHA         7.6670    0.0030    0.9760 h1        1 BSZ      0.034367
     16 HHB         6.3350   -0.9000    1.8650 h1        1 BSZ      0.034367
     17 HD1         1.8270    0.0170    2.1470 ha        1 BSZ      0.150000
     18 HD2         1.9050   -0.0170   -2.1520 ha        1 BSZ      0.164000
     19 HE1         4.3120   -0.0010    2.2240 ha        1 BSZ      0.121000
@<TRIPOS>BOND
     1    1    3 1   
     2    1    7 1   
     3    1    8 1   
     4    1   13 1   
     5    2   12 1   
     6    3    9 ar  
     7    3   10 ar  
     8    4    5 1   
     9    4   14 1   
    10    4   15 1   
    11    4   16 1   
    12    5    6 1   
    13    6   11 ar  
    14    6   12 ar  
    15    9   11 ar  
    16    9   17 1   
    17   10   12 ar  
    18   10   18 1   
    19   11   19 1   
@<TRIPOS>SUBSTRUCTURE
     1 BSZ         1 TEMP              0 ****  ****    0 ROOT
