@<TRIPOS>MOLECULE
molecule
   19    19     1     0     0
SMALL
bcc


@<TRIPOS>ATOM
      1 S            0.0000     0.0000     0.0000 s6         1 BSZ       1.323100
      2 Cl           4.7010    -0.0080    -2.7040 cl         1 BSZ      -0.137400
      3 CG           1.7610     0.0000     0.0000 ca         1 BSZ      -0.280500
      4 CH           6.5360    -0.0020     1.2770 c3         1 BSZ       0.132700
      5 OH           5.8880    -0.0020     0.0030 os         1 BSZ      -0.329900
      6 CZ           4.5290    -0.0020     0.0020 ca         1 BSZ       0.148100
      7 OB1         -0.4020    -0.5440    -1.2500 o          1 BSZ      -0.707867
      8 OB2         -0.4020    -0.5440     1.2500 o          1 BSZ      -0.707867
      9 CD1          2.4510     0.0000     1.1980 ca         1 BSZ       0.000000
     10 CD2          2.4520    -0.0060    -1.1980 ca         1 BSZ       0.004000
     11 CE1          3.8330    -0.0010     1.2020 ca         1 BSZ      -0.250000
     12 CE2          3.8340    -0.0070    -1.2000 ca         1 BSZ      -0.030600
     13 OXT         -0.4510     1.4540    -0.0000 o          1 BSZ      -0.707867
     14 HH           6.2450     0.8830     1.8300 h1         1 BSZ       0.034367
     15 HHA          6.2440    -0.8860     1.8300 h1         1 BSZ       0.034367
     16 HHB          7.6100    -0.0020     1.1350 h1         1 BSZ       0.034367
     17 HD1          1.9080     0.0000     2.1350 ha         1 BSZ       0.154000
     18 HD2          1.9090    -0.0090    -2.1350 ha         1 BSZ       0.168000
     19 HE1          4.3720    -0.0010     2.1410 ha         1 BSZ       0.122000
@<TRIPOS>BOND
     1     1     3 1
     2     1     7 1
     3     1     8 1
     4     1    13 1
     5     2    12 1
     6     3     9 ar
     7     3    10 ar
     8     4     5 1
     9     5     6 1
    10     6    11 ar
    11     6    12 ar
    12     9    11 ar
    13    10    12 ar
    14     4    14 1
    15     4    15 1
    16     4    16 1
    17     9    17 1
    18    10    18 1
    19    11    19 1
@<TRIPOS>SUBSTRUCTURE
     1 BSZ         1 TEMP              0 ****  ****    0 ROOT
