@<TRIPOS>MOLECULE
molecule
   74    79     1     0     0
SMALL
bcc


@<TRIPOS>ATOM
      1 C1           0.0000     0.0000     0.0000 ca         1 BT1      -0.112000
      2 C2           1.3820     0.0000     0.0000 ca         1 BT1      -0.090000
      3 C3           2.0660     0.0000     1.1980 ca         1 BT1       0.006900
      4 C4           1.4020    -0.0060     2.4380 ca         1 BT1      -0.067800
      5 C5          -0.0110     0.0020     2.4030 ca         1 BT1      -0.087000
      6 C6          -0.6820     0.0000     1.2070 ca         1 BT1      -0.129000
      7 S1           3.7880    -0.0020     1.6200 ss         1 BT1      -0.120500
      8 C8           3.6510    -0.0010     3.3960 cc         1 BT1       0.096400
      9 C9           2.2790    -0.0000     3.6110 cd         1 BT1      -0.186400
     10 C7           1.7270     0.0010     4.9660 c          1 BT1       0.617900
     11 C10          4.7330    -0.0010     4.3970 ca         1 BT1      -0.078800
     12 C12          5.8030    -0.8930     4.2740 ca         1 BT1      -0.065500
     13 C14          6.8120    -0.8880     5.2110 ca         1 BT1      -0.194500
     14 C16          6.7680     0.0010     6.2770 ca         1 BT1       0.133100
     15 C18          5.7070     0.8880     6.4050 ca         1 BT1      -0.194500
     16 C20          4.6960     0.8950     5.4690 ca         1 BT1      -0.065500
     17 O2           7.7650     0.0010     7.1990 os         1 BT1      -0.298900
     18 C24          7.4100     0.9650     8.1920 c3         1 BT1       0.111400
     19 C11          1.1280    -1.2770     7.0290 ca         1 BT1      -0.010000
     20 C13          1.5560    -1.2730     5.6930 ca         1 BT1      -0.339900
     21 C15          1.8120    -2.4900     5.0620 ca         1 BT1       0.510200
     22 N1           1.6640    -3.6260     5.7100 nb         1 BT1      -0.779000
     23 C19          1.2620    -3.6630     6.9700 ca         1 BT1       0.663600
     24 C21          0.9820    -2.4920     7.6670 ca         1 BT1      -0.288300
     25 O3           1.1210    -4.8600     7.5910 os         1 BT1      -0.415100
     26 C25          1.5980    -5.8540     6.6840 c3         1 BT1       0.125400
     27 C17         -1.2260    -7.4810     9.5540 c3         1 BT1      -0.100400
     28 C23         -0.3640    -8.7620     9.6870 c3         1 BT1      -0.100400
     29 C26          0.2190    -8.9380     8.2690 c3         1 BT1       0.135800
     30 N2           0.1750    -7.6180     7.6120 n3         1 BT1      -0.678600
     31 C27         -0.3820    -6.6370     8.5660 c3         1 BT1       0.135800
     32 C22         10.7070     1.4700     9.8630 c3         1 BT1       0.135800
     33 N3           9.7350     1.4860     8.7540 n3         1 BT1      -0.680600
     34 C28         10.1780     0.5210     7.7260 c3         1 BT1       0.135800
     35 C29         11.7060     0.3880     7.9410 c3         1 BT1      -0.100400
     36 C30         11.8140     0.4620     9.4860 c3         1 BT1      -0.100400
     37 C33          1.5690    -7.2240     7.3670 c3         1 BT1       0.128800
     38 C34          8.4690     0.9750     9.2950 c3         1 BT1       0.133800
     39 O1           1.4060     1.0510     5.4910 o          1 BT1      -0.525100
     40 H1          -0.5460    -0.0010    -0.9360 ha         1 BT1       0.138000
     41 H2           1.9260    -0.0000    -0.9370 ha         1 BT1       0.139000
     42 H5          -0.5700     0.0020     3.3310 ha         1 BT1       0.138000
     43 H6          -1.7650     0.0000     1.2060 ha         1 BT1       0.135000
     44 H12          5.8370    -1.5860     3.4420 ha         1 BT1       0.148500
     45 H14          7.6420    -1.5790     5.1160 ha         1 BT1       0.148500
     46 H18          5.6780     1.5800     7.2370 ha         1 BT1       0.148500
     47 H20          3.8690     1.5870     5.5690 ha         1 BT1       0.148500
     48 H241         6.4470     0.7070     8.6170 h1         1 BT1       0.052700
     49 H242         7.3520     1.9470     7.7370 h1         1 BT1       0.052700
     50 H11          0.9170    -0.3490     7.5460 ha         1 BT1       0.160000
     51 H15          2.1420    -2.5000     4.0310 h4         1 BT1       0.038100
     52 H21          0.6540    -2.5330     8.6980 ha         1 BT1       0.153000
     53 H251         2.6140    -5.6190     6.3910 h1         1 BT1       0.065700
     54 H252         0.9650    -5.8760     5.8050 h1         1 BT1       0.065700
     55 H172        -1.3190    -6.9780    10.5090 hc         1 BT1       0.049700
     56 H231        -0.9820    -9.6110     9.9540 hc         1 BT1       0.049700
     57 H232         0.4290    -8.6150    10.4100 hc         1 BT1       0.049700
     58 H261        -0.3810    -9.6460     7.7100 h1         1 BT1       0.052200
     59 H262         1.2430    -9.2830     8.3330 h1         1 BT1       0.052200
     60 H271        -1.0130    -5.9250     8.0470 h1         1 BT1       0.052200
     61 H272         0.4160    -6.1290     9.0930 h1         1 BT1       0.052200
     62 H221        11.1360     2.4560     9.9900 h1         1 BT1       0.053200
     63 H222        10.2180     1.1540    10.7760 h1         1 BT1       0.053200
     64 H281         9.6930    -0.4360     7.8760 h1         1 BT1       0.053200
     65 H282         9.9700     0.9060     6.7350 h1         1 BT1       0.053200
     66 H291        12.0650    -0.5660     7.5750 hc         1 BT1       0.049950
     67 H292        12.2330     1.2130     7.4770 hc         1 BT1       0.049950
     68 H301        12.7860     0.8360     9.7830 hc         1 BT1       0.049950
     69 H302        11.6150    -0.5060     9.9300 hc         1 BT1       0.049950
     70 H331         2.0440    -7.9570     6.7270 h1         1 BT1       0.046200
     71 H332         2.1000    -7.1680     8.3100 h1         1 BT1       0.046200
     72 H341         8.1390     1.6140    10.1060 h1         1 BT1       0.047200
     73 H342         8.6140    -0.0320     9.6660 h1         1 BT1       0.047200
     74 H171        -2.1970    -7.7120     9.1320 hc         1 BT1       0.049700
@<TRIPOS>BOND
     1     1     2 ar
     2     1     6 ar
     3     1    40 1
     4     2     3 ar
     5     2    41 1
     6     3     4 ar
     7     3     7 1
     8     4     5 ar
     9     4     9 1
    10     5     6 ar
    11     5    42 1
    12     6    43 1
    13     7     8 1
    14     8     9 2
    15     8    11 1
    16     9    10 1
    17    10    20 1
    18    10    39 2
    19    11    12 ar
    20    11    16 ar
    21    12    13 ar
    22    12    44 1
    23    13    14 ar
    24    13    45 1
    25    14    15 ar
    26    14    17 1
    27    15    16 ar
    28    15    46 1
    29    16    47 1
    30    17    18 1
    31    18    38 1
    32    18    48 1
    33    18    49 1
    34    19    20 ar
    35    19    24 ar
    36    19    50 1
    37    20    21 ar
    38    21    22 ar
    39    21    51 1
    40    22    23 ar
    41    23    24 ar
    42    23    25 1
    43    24    52 1
    44    25    26 1
    45    26    37 1
    46    26    53 1
    47    26    54 1
    48    27    28 1
    49    27    31 1
    50    27    74 1
    51    27    55 1
    52    28    29 1
    53    28    56 1
    54    28    57 1
    55    29    30 1
    56    29    58 1
    57    29    59 1
    58    30    31 1
    59    30    37 1
    60    31    60 1
    61    31    61 1
    62    32    33 1
    63    32    36 1
    64    32    62 1
    65    32    63 1
    66    33    34 1
    67    33    38 1
    68    34    35 1
    69    34    64 1
    70    34    65 1
    71    35    36 1
    72    35    66 1
    73    35    67 1
    74    36    68 1
    75    36    69 1
    76    37    70 1
    77    37    71 1
    78    38    72 1
    79    38    73 1
@<TRIPOS>SUBSTRUCTURE
     1 BT1         1 TEMP              0 ****  ****    0 ROOT
