@<TRIPOS>MOLECULE
molecule
   76    81     1     0     0
SMALL
bcc


@<TRIPOS>ATOM
      1 C1           0.0000     0.0000     0.0000 ca         1 BT2      -0.115000
      2 C2           1.3810     0.0000     0.0000 ca         1 BT2      -0.090000
      3 C3           2.0620     0.0000     1.1990 ca         1 BT2       0.010900
      4 C4           1.3890    -0.0050     2.4420 ca         1 BT2      -0.079800
      5 C5          -0.0260     0.0010     2.3980 ca         1 BT2      -0.091000
      6 C6          -0.6840     0.0000     1.2070 ca         1 BT2      -0.136000
      7 S1           3.7770    -0.0000     1.6470 ss         1 BT2      -0.143500
      8 C8           3.6010    -0.0000     3.4200 cc         1 BT2       0.063400
      9 C9           2.2610     0.0000     3.6040 cd         1 BT2      -0.089400
     10 C7           1.6800     0.0010     4.9950 c3         1 BT2       0.021100
     11 C10          4.6660    -0.0000     4.4460 ca         1 BT2      -0.054800
     12 C12          5.7060    -0.9290     4.3760 ca         1 BT2      -0.074000
     13 C14          6.6970    -0.9260     5.3340 ca         1 BT2      -0.193500
     14 C16          6.6610     0.0000     6.3670 ca         1 BT2       0.125100
     15 C18          5.6300     0.9260     6.4410 ca         1 BT2      -0.193500
     16 C20          4.6380     0.9330     5.4840 ca         1 BT2      -0.074000
     17 O2           7.6400     0.0010     7.3100 os         1 BT2      -0.297900
     18 C24          7.3310     1.0530     8.2260 c3         1 BT2       0.113400
     19 C11          0.4320    -2.1640     5.1540 ca         1 BT2      -0.085000
     20 C13          1.5490    -1.4190     5.4850 ca         1 BT2      -0.117300
     21 C15          2.5470    -1.9740     6.2630 ca         1 BT2      -0.085000
     22 C32          2.4300    -3.2750     6.7140 ca         1 BT2      -0.191500
     23 C19          1.3090    -4.0230     6.3840 ca         1 BT2       0.119100
     24 C21          0.3130    -3.4660     5.5970 ca         1 BT2      -0.191500
     25 O3           1.1920    -5.3030     6.8250 os         1 BT2      -0.276900
     26 C25         -0.0510    -5.8010     6.3260 c3         1 BT2       0.119400
     27 C17         -1.8430    -7.2820    10.0530 c3         1 BT2      -0.085400
     28 C23         -1.1460    -8.6570    10.0150 c3         1 BT2      -0.085400
     29 C26         -0.4480    -8.7140     8.6400 c3         1 BT2       0.123300
     30 N2          -0.2560    -7.2910     8.2580 n3         1 BT2      -0.646600
     31 C27         -1.5070    -6.6230     8.6980 c3         1 BT2       0.123300
     32 C22         10.6920     1.4010     9.8100 c3         1 BT2       0.137300
     33 N3           9.7130     1.3600     8.7090 n3         1 BT2      -0.679600
     34 C28         10.0140     0.1930     7.8540 c3         1 BT2       0.137300
     35 C29         11.5170    -0.0960     8.0940 c3         1 BT2      -0.100900
     36 C30         11.6570     0.2150     9.6080 c3         1 BT2      -0.100900
     37 C33         -0.2460    -7.2450     6.7890 c3         1 BT2       0.126800
     38 C34          8.4000     1.1080     9.3190 c3         1 BT2       0.134800
     39 H1          -0.5450    -0.0010    -0.9360 ha         1 BT2       0.135000
     40 H2           1.9260    -0.0000    -0.9360 ha         1 BT2       0.138000
     41 H5          -0.5910     0.0010     3.3220 ha         1 BT2       0.130000
     42 H6          -1.7670     0.0000     1.2010 ha         1 BT2       0.129000
     43 H71          2.3330     0.5530     5.6590 hc         1 BT2       0.055700
     44 H72          0.7030     0.4680     4.9780 hc         1 BT2       0.055700
     45 H12          5.7340    -1.6520     3.5700 ha         1 BT2       0.143000
     46 H14          7.5040    -1.6470     5.2800 ha         1 BT2       0.146500
     47 H18          5.6080     1.6480     7.2480 ha         1 BT2       0.146500
     48 H20          3.8340     1.6550     5.5420 ha         1 BT2       0.143000
     49 H241         7.3070     1.9970     7.6960 h1         1 BT2       0.050200
     50 H242         6.3630     0.8670     8.6760 h1         1 BT2       0.050200
     51 H11         -0.3460    -1.7280     4.5380 ha         1 BT2       0.134000
     52 H15          3.4210    -1.3890     6.5200 ha         1 BT2       0.134000
     53 H32          3.2110    -3.7090     7.3260 ha         1 BT2       0.141500
     54 H21         -0.5620    -4.0490     5.3370 ha         1 BT2       0.141500
     55 H251        -0.8620    -5.1880     6.7020 h1         1 BT2       0.041700
     56 H252        -0.0450    -5.7660     5.2430 h1         1 BT2       0.041700
     57 H172        -1.4510    -6.6850    10.8670 hc         1 BT2       0.048200
     58 H231        -0.4150    -8.7280    10.8100 hc         1 BT2       0.048200
     59 H232        -1.8790    -9.4510    10.0960 hc         1 BT2       0.048200
     60 H261         0.5100    -9.2130     8.7240 h1         1 BT2       0.044200
     61 H262        -1.0800    -9.2150     7.9170 h1         1 BT2       0.044200
     62 H271        -1.3400    -5.5600     8.8270 h1         1 BT2       0.044200
     63 H272        -2.3010    -6.8030     7.9840 h1         1 BT2       0.044200
     64 H221        10.1810     1.3020    10.7600 h1         1 BT2       0.053450
     65 H222        11.2430     2.3330     9.7760 h1         1 BT2       0.053450
     66 H281         9.4150    -0.6580     8.1540 h1         1 BT2       0.053450
     67 H282         9.8410     0.4350     6.8120 h1         1 BT2       0.053450
     68 H291        11.7470    -1.1350     7.8910 hc         1 BT2       0.049950
     69 H292        12.1370     0.5690     7.5050 hc         1 BT2       0.049950
     70 H301        12.6730     0.5050     9.8460 hc         1 BT2       0.049950
     71 H302        11.3450    -0.6350    10.2030 hc         1 BT2       0.049950
     72 H331        -1.1890    -7.6220     6.4100 h1         1 BT2       0.048200
     73 H332         0.5650    -7.8570     6.4140 h1         1 BT2       0.048200
     74 H341         8.1660     1.9050    10.0130 h1         1 BT2       0.045700
     75 H342         8.4240     0.1630     9.8480 h1         1 BT2       0.045700
     76 H171        -2.9150    -7.4070    10.1520 hc         1 BT2       0.048200
@<TRIPOS>BOND
     1     1     2 ar
     2     1     6 ar
     3     1    39 1
     4     2     3 ar
     5     2    40 1
     6     3     4 ar
     7     3     7 1
     8     4     5 ar
     9     4     9 1
    10     5     6 ar
    11     5    41 1
    12     6    42 1
    13     7     8 1
    14     8     9 2
    15     8    11 1
    16     9    10 1
    17    10    20 1
    18    10    43 1
    19    10    44 1
    20    11    12 ar
    21    11    16 ar
    22    12    13 ar
    23    12    45 1
    24    13    14 ar
    25    13    46 1
    26    14    15 ar
    27    14    17 1
    28    15    16 ar
    29    15    47 1
    30    16    48 1
    31    17    18 1
    32    18    38 1
    33    18    49 1
    34    18    50 1
    35    19    20 ar
    36    19    24 ar
    37    19    51 1
    38    20    21 ar
    39    21    22 ar
    40    21    52 1
    41    22    23 ar
    42    22    53 1
    43    23    24 ar
    44    23    25 1
    45    24    54 1
    46    25    26 1
    47    26    37 1
    48    26    55 1
    49    26    56 1
    50    27    28 1
    51    27    31 1
    52    27    76 1
    53    27    57 1
    54    28    29 1
    55    28    58 1
    56    28    59 1
    57    29    30 1
    58    29    60 1
    59    29    61 1
    60    30    31 1
    61    30    37 1
    62    31    62 1
    63    31    63 1
    64    32    33 1
    65    32    36 1
    66    32    64 1
    67    32    65 1
    68    33    34 1
    69    33    38 1
    70    34    35 1
    71    34    66 1
    72    34    67 1
    73    35    36 1
    74    35    68 1
    75    35    69 1
    76    36    70 1
    77    36    71 1
    78    37    72 1
    79    37    73 1
    80    38    74 1
    81    38    75 1
@<TRIPOS>SUBSTRUCTURE
     1 BT2         1 TEMP              0 ****  ****    0 ROOT
