@<TRIPOS>MOLECULE
molecule
   76    81     1     0     0
SMALL
bcc


@<TRIPOS>ATOM
      1 C1           0.0000     0.0000     0.0000 ca         1 BT3       0.120100
      2 C2           1.3870     0.0000     0.0000 ca         1 BT3      -0.119000
      3 C3           2.0650     0.0000     1.1990 ca         1 BT3       0.023900
      4 C4           1.3930    -0.0100     2.4410 ca         1 BT3      -0.089800
      5 C5          -0.0220    -0.0140     2.4000 ca         1 BT3      -0.076000
      6 C6          -0.6830    -0.0090     1.2120 ca         1 BT3      -0.157000
      7 S1           3.7820     0.0040     1.6460 ss         1 BT3      -0.139500
      8 C8           3.6060    -0.0060     3.4210 cc         1 BT3       0.057400
      9 C9           2.2660    -0.0120     3.6040 cd         1 BT3      -0.080400
     10 C7           1.6850    -0.0220     4.9960 c3         1 BT3       0.020100
     11 C10          4.6710    -0.0080     4.4460 ca         1 BT3      -0.181100
     12 C12          4.6440     0.9130     5.5000 ca         1 BT3      -0.051000
     13 C14          5.6610     0.8740     6.4340 ca         1 BT3      -0.272300
     14 C16          6.6710    -0.0710     6.2970 ca         1 BT3       0.643600
     15 N1           6.6690    -0.9280     5.2900 nb         1 BT3      -0.766000
     16 C20          5.7150    -0.9280     4.3800 ca         1 BT3       0.479200
     17 O2           7.6730    -0.1160     7.2110 os         1 BT3      -0.416100
     18 C24          8.5480    -1.1730     6.8130 c3         1 BT3       0.127400
     19 C11          2.5160    -2.0960     6.1200 ca         1 BT3      -0.085000
     20 C13          1.4960    -1.4460     5.4500 ca         1 BT3      -0.117300
     21 C15          0.3030    -2.0980     5.2020 ca         1 BT3      -0.085000
     22 C32          0.1310    -3.4050     5.6140 ca         1 BT3      -0.188000
     23 C19          1.1520    -4.0600     6.2860 ca         1 BT3       0.118100
     24 C21          2.3470    -3.4020     6.5390 ca         1 BT3      -0.188000
     25 O3           0.9810    -5.3430     6.6980 os         1 BT3      -0.299900
     26 C25         -0.3330    -5.7360     6.2950 c3         1 BT3       0.114400
     27 C17          1.3150    -7.9800     9.6280 c3         1 BT3      -0.100900
     28 C23          0.5710    -9.2540     9.1480 c3         1 BT3      -0.100900
     29 C26         -0.7310    -8.6880     8.5420 c3         1 BT3       0.137800
     30 N2          -0.4730    -7.2800     8.1910 n3         1 BT3      -0.680600
     31 C27          0.9300    -6.9590     8.5300 c3         1 BT3       0.137800
     32 C22         10.3390    -1.6460    10.0510 c3         1 BT3       0.137300
     33 N3           9.1780    -1.5580     9.1480 n3         1 BT3      -0.679600
     34 C28          8.3650    -0.3880     9.5370 c3         1 BT3       0.137300
     35 C29          8.7080    -0.1470    11.0290 c3         1 BT3      -0.100900
     36 C30         10.2210    -0.4860    11.0610 c3         1 BT3      -0.100900
     37 C33         -0.5890    -7.1800     6.7300 c3         1 BT3       0.133800
     38 C34          9.7060    -1.2770     7.8060 c3         1 BT3       0.129800
     39 O1          -0.6860     0.0040    -1.1740 oh         1 BT3      -0.517100
     40 H2           1.9330     0.0070    -0.9360 ha         1 BT3       0.149000
     41 H5          -0.5850    -0.0210     3.3250 ha         1 BT3       0.134000
     42 H6          -1.7660    -0.0090     1.2090 ha         1 BT3       0.141000
     43 H71          2.3610     0.4870     5.6720 hc         1 BT3       0.055700
     44 H72          0.7280     0.4850     4.9910 hc         1 BT3       0.055700
     45 H12          3.8440     1.6390     5.5820 ha         1 BT3       0.150000
     46 H14          5.6710     1.5710     7.2630 ha         1 BT3       0.153000
     47 H20          5.7470    -1.6460     3.5690 h4         1 BT3       0.037100
     48 H241         8.9380    -0.9650     5.8240 h1         1 BT3       0.063700
     49 H242         8.0010    -2.1070     6.7960 h1         1 BT3       0.063700
     50 H11          3.4480    -1.5810     6.3170 ha         1 BT3       0.132000
     51 H15         -0.4940    -1.5860     4.6770 ha         1 BT3       0.132000
     52 H32         -0.8040    -3.9160     5.4170 ha         1 BT3       0.143000
     53 H21          3.1460    -3.9110     7.0640 ha         1 BT3       0.143000
     54 H251        -0.4170    -5.6620     5.2180 h1         1 BT3       0.049700
     55 H252        -1.0630    -5.0840     6.7600 h1         1 BT3       0.049700
     56 H172         2.3860    -8.1420     9.6450 hc         1 BT3       0.049450
     57 H231         0.3510    -9.9060     9.9850 hc         1 BT3       0.049450
     58 H232         1.1490    -9.7710     8.3920 hc         1 BT3       0.049450
     59 H261        -1.5300    -8.7440     9.2720 h1         1 BT3       0.053450
     60 H262        -0.9960    -9.2460     7.6530 h1         1 BT3       0.053450
     61 H271         1.0010    -5.9480     8.9140 h1         1 BT3       0.053450
     62 H272         1.5640    -7.0840     7.6610 h1         1 BT3       0.053450
     63 H221        10.3260    -2.5930    10.5760 h1         1 BT3       0.052200
     64 H222        11.2560    -1.5450     9.4820 h1         1 BT3       0.052200
     65 H281         8.6420     0.4760     8.9440 h1         1 BT3       0.052200
     66 H282         7.3110    -0.6080     9.4250 h1         1 BT3       0.052200
     67 H291         8.5390     0.8880    11.3010 hc         1 BT3       0.049200
     68 H292         8.1480    -0.8200    11.6670 hc         1 BT3       0.049200
     69 H301        10.5180    -0.8110    12.0510 hc         1 BT3       0.049200
     70 H302        10.8090     0.3630    10.7360 hc         1 BT3       0.049200
     71 H331         0.1400    -7.8320     6.2640 h1         1 BT3       0.045200
     72 H332        -1.5850    -7.4770     6.4250 h1         1 BT3       0.045200
     73 H341        10.2540    -0.3430     7.8220 h1         1 BT3       0.045200
     74 H342        10.3690    -2.0790     7.5040 h1         1 BT3       0.045200
     75 HO1         -0.8010     0.8930    -1.4670 ho         1 BT3       0.422000
     76 H171         0.9480    -7.6620    10.5970 hc         1 BT3       0.049450
@<TRIPOS>BOND
     1     1     2 ar
     2     1     6 ar
     3     1    39 1
     4     2     3 ar
     5     2    40 1
     6     3     4 ar
     7     3     7 1
     8     4     5 ar
     9     4     9 1
    10     5     6 ar
    11     5    41 1
    12     6    42 1
    13     7     8 1
    14     8     9 2
    15     8    11 1
    16     9    10 1
    17    10    20 1
    18    10    43 1
    19    10    44 1
    20    11    12 ar
    21    11    16 ar
    22    12    13 ar
    23    12    45 1
    24    13    14 ar
    25    13    46 1
    26    14    15 ar
    27    14    17 1
    28    15    16 ar
    29    16    47 1
    30    17    18 1
    31    18    38 1
    32    18    48 1
    33    18    49 1
    34    19    20 ar
    35    19    24 ar
    36    19    50 1
    37    20    21 ar
    38    21    22 ar
    39    21    51 1
    40    22    23 ar
    41    22    52 1
    42    23    24 ar
    43    23    25 1
    44    24    53 1
    45    25    26 1
    46    26    37 1
    47    26    54 1
    48    26    55 1
    49    27    28 1
    50    27    31 1
    51    27    76 1
    52    27    56 1
    53    28    29 1
    54    28    57 1
    55    28    58 1
    56    29    30 1
    57    29    59 1
    58    29    60 1
    59    30    31 1
    60    30    37 1
    61    31    61 1
    62    31    62 1
    63    32    33 1
    64    32    36 1
    65    32    63 1
    66    32    64 1
    67    33    34 1
    68    33    38 1
    69    34    35 1
    70    34    65 1
    71    34    66 1
    72    35    36 1
    73    35    67 1
    74    35    68 1
    75    36    69 1
    76    36    70 1
    77    37    71 1
    78    37    72 1
    79    38    73 1
    80    38    74 1
    81    39    75 1
@<TRIPOS>SUBSTRUCTURE
     1 BT3         1 TEMP              0 ****  ****    0 ROOT
