@<TRIPOS>MOLECULE
molecule
   13    13     1     0     0
SMALL
bcc


@<TRIPOS>ATOM
      1 S1           0.0000     0.0000     0.0000 sh         1 BT6      -0.368700
      2 C1           1.7620     0.0000     0.0000 ca         1 BT6       0.026900
      3 C6           2.4590     0.0000     1.2030 ca         1 BT6      -0.084000
      4 C5           3.8400    -0.0010     1.1990 ca         1 BT6      -0.140000
      5 C4           4.5290    -0.0010     0.0000 ca         1 BT6      -0.104000
      6 C3           3.8400     0.0000    -1.1990 ca         1 BT6      -0.140000
      7 C2           2.4590    -0.0070    -1.2030 ca         1 BT6      -0.084000
      8 HS1         -0.4430     1.2520    -0.0030 hs         1 BT6       0.206800
      9 H6           1.9200    -0.0000     2.1420 ha         1 BT6       0.144000
     10 H5           4.3840    -0.0010     2.1360 ha         1 BT6       0.135000
     11 H4           5.6130     0.0020     0.0000 ha         1 BT6       0.132000
     12 H3           4.3840    -0.0030    -2.1360 ha         1 BT6       0.135000
     13 H2           1.9190    -0.0060    -2.1420 ha         1 BT6       0.144000
@<TRIPOS>BOND
     1     1     2 1
     2     2     3 ar
     3     2     7 ar
     4     3     4 ar
     5     4     5 ar
     6     5     6 ar
     7     6     7 ar
     8     1     8 1
     9     3     9 1
    10     4    10 1
    11     5    11 1
    12     6    12 1
    13     7    13 1
@<TRIPOS>SUBSTRUCTURE
     1 BT6         1 TEMP              0 ****  ****    0 ROOT
