@<TRIPOS>MOLECULE
BT6
   13    13     1     0     0
SMALL
bcc


@<TRIPOS>ATOM
      1 S1          0.0450    0.2550   -0.2720 sh        1 BT6     -0.254700
      2 C1          1.7310    0.1570   -0.1150 ca        1 BT6      0.015900
      3 C6          2.4060    0.2280    1.1080 ca        1 BT6     -0.132000
      4 C5          3.7960    0.1390    1.1480 ca        1 BT6     -0.113000
      5 C4          4.5240   -0.0220   -0.0300 ca        1 BT6     -0.137000
      6 C3          3.8540   -0.0930   -1.2530 ca        1 BT6     -0.113000
      7 C2          2.4660   -0.0050   -1.2980 ca        1 BT6     -0.132000
      8 HS1        -0.2970    0.3990    0.9960 hs        1 BT6      0.190800
      9 H6          1.8420    0.3550    2.0440 ha        1 BT6      0.136500
     10 H5          4.3180    0.1960    2.1150 ha        1 BT6      0.133500
     11 H4          5.6200   -0.0920    0.0030 ha        1 BT6      0.134000
     12 H3          4.4230   -0.2200   -2.1860 ha        1 BT6      0.133500
     13 H2          1.9380   -0.0610   -2.2630 ha        1 BT6      0.136500
@<TRIPOS>BOND
     1    1    2 1   
     2    1    8 1   
     3    2    3 ar  
     4    2    7 ar  
     5    3    4 ar  
     6    3    9 1   
     7    4    5 ar  
     8    4   10 1   
     9    5    6 ar  
    10    5   11 1   
    11    6    7 ar  
    12    6   12 1   
    13    7   13 1   
@<TRIPOS>SUBSTRUCTURE
     1 BT6         1 TEMP              0 ****  ****    0 ROOT
