@<TRIPOS>MOLECULE
molecule
   31    31     1     0     0
SMALL
bcc


@<TRIPOS>ATOM
      1 N10          0.0000     0.0000     0.0000 nc         1 BT7      -0.514800
      2 C11          3.1800     0.0010     1.7890 c3         1 BT7       0.189400
      3 C01         -2.2870    -2.2290     0.7460 c3         1 BT7      -0.093600
      4 C02         -2.2780    -1.4380     2.0550 c3         1 BT7      -0.102400
      5 C03         -1.8320    -0.0010     1.7790 c3         1 BT7       0.080000
      6 C04         -1.9560     0.8260     3.0610 c3         1 BT7      -0.102400
      7 C05         -1.6260     2.2890     2.7570 c3         1 BT7      -0.093600
      8 C07          0.6530     0.0000     2.1260 cc         1 BT7      -0.083300
      9 C08          1.7460     0.0000     1.3280 cd         1 BT7      -0.347600
     10 C09          1.3090     0.0000     0.0000 cd         1 BT7       0.361200
     11 C13          3.7430    -1.4190     1.7080 c3         1 BT7       0.383900
     12 F14          5.0360    -1.4400     2.2430 f          1 BT7      -0.243300
     13 F15          2.9240    -2.2880     2.4370 f          1 BT7      -0.243300
     14 N06         -0.4370    -0.0010     1.3310 na         1 BT7       0.079400
     15 O12          3.9490     0.8670     0.9520 oh         1 BT7      -0.590800
     16 H1           3.2300     0.3510     2.8130 h1         1 BT7       0.051700
     17 H2          -2.5880    -1.5790    -0.0670 hc         1 BT7       0.041533
     18 H3          -2.9850    -3.0530     0.8270 hc         1 BT7       0.041533
     19 H4          -1.2930    -2.6150     0.5510 hc         1 BT7       0.041533
     20 H5          -3.2750    -1.4320     2.4790 hc         1 BT7       0.052700
     21 H6          -1.5920    -1.9020     2.7530 hc         1 BT7       0.052700
     22 H7          -2.4600     0.4310     1.0090 h1         1 BT7       0.086700
     23 H8          -1.2640     0.4470     3.8040 hc         1 BT7       0.052700
     24 H9          -2.9680     0.7550     3.4410 hc         1 BT7       0.052700
     25 H10         -1.7170     2.4660     1.6920 hc         1 BT7       0.041533
     26 H11         -0.6130     2.5050     3.0750 hc         1 BT7       0.041533
     27 H12         -2.3160     2.9320     3.2900 hc         1 BT7       0.041533
     28 H13          0.6530    -0.0000     3.2090 h4         1 BT7       0.171000
     29 H14          1.9440     0.0010    -0.8780 h4         1 BT7       0.056100
     30 H15          3.7750    -1.7360     0.6730 h2         1 BT7       0.081700
     31 H16          4.3860     1.5120     1.4840 ho         1 BT7       0.413000
@<TRIPOS>BOND
     1     3     4 1
     2     4     5 1
     3     6     5 1
     4     6     7 1
     5     1    14 1
     6     1    10 2
     7     5    14 1
     8    14     8 1
     9    10     9 1
    10     8     9 2
    11     9     2 1
    12    15     2 1
    13     2    11 1
    14    11    12 1
    15    11    13 1
    16     2    16 1
    17     3    17 1
    18     3    18 1
    19     3    19 1
    20     4    20 1
    21     4    21 1
    22     5    22 1
    23     6    23 1
    24     6    24 1
    25     7    25 1
    26     7    26 1
    27     7    27 1
    28     8    28 1
    29    10    29 1
    30    11    30 1
    31    15    31 1
@<TRIPOS>SUBSTRUCTURE
     1 BT7         1 TEMP              0 ****  ****    0 ROOT
