@<TRIPOS>MOLECULE
BT8
   54    55     1     0     0
SMALL
bcc


@<TRIPOS>ATOM
      1 C10        -0.4020    0.1630    0.0760 c1        1 BT8     -0.056000
      2 C13         2.0110   -1.3630    1.2450 c3        1 BT8     -0.061000
      3 C15        -2.2880   -2.6920    1.5410 c3        1 BT8     -0.019000
      4 C17        -4.1420   -3.8870    2.4610 ca        1 BT8      0.123000
      5 C20        -5.4520   -6.2650    3.0220 ca        1 BT8     -0.182000
      6 C21        -6.0050   -4.9990    3.3900 ca        1 BT8      0.051000
      7 C22        -5.3820   -3.7930    3.1280 ca        1 BT8     -0.169000
      8 C28        -8.9350   -9.2240    5.7580 c3        1 BT8     -0.309000
      9 C02         6.4070    0.9410    1.5240 c2        1 BT8     -0.097000
     10 C03         5.4850    1.9830    1.3000 c2        1 BT8     -0.129000
     11 C04         4.1640    1.6490    1.0070 c2        1 BT8     -0.137000
     12 C05         3.8230    0.2680    0.9580 c2        1 BT8      0.006000
     13 N06         4.8060   -0.6930    1.1880 n2        1 BT8     -0.076000
     14 N07         5.9980   -0.3740    1.4550 n2        1 BT8     -0.031000
     15 N08         2.4620   -0.0870    0.7000 nh        1 BT8     -0.230000
     16 C09         2.0830    0.1390   -0.6780 c3        1 BT8     -0.149000
     17 C11        -0.4830   -1.1330    0.7780 c3        1 BT8     -0.186000
     18 C12         0.6010   -1.2920    1.8350 c3        1 BT8     -0.171000
     19 C14        -1.8770   -1.2360    1.3970 c3        1 BT8     -0.152000
     20 O16        -3.5510   -2.6640    2.2190 os        1 BT8     -0.212000
     21 C18        -3.5760   -5.1220    2.0880 ca        1 BT8     -0.243000
     22 C19        -4.2330   -6.3210    2.3680 ca        1 BT8     -0.004000
     23 O23        -7.2370   -5.2160    4.0340 os        1 BT8     -0.074000
     24 N24        -7.4850   -6.5320    4.0900 n2        1 BT8     -0.170000
     25 C25        -6.4690   -7.2140    3.5090 c2        1 BT8      0.121000
     26 O26        -6.3430   -8.5420    3.3680 oh        1 BT8     -0.295000
     27 C27        -8.6310   -9.4830    4.3840 c1        1 BT8     -0.068000
     28 H10         0.9270    0.1430   -0.7930 h1        1 BT8      0.108333
     29 H10A       -0.3330    1.0390    0.7450 ha        1 BT8      0.044000
     30 H13         2.0380   -2.1710    0.4570 h1        1 BT8      0.096000
     31 H13A        2.6900   -1.6870    2.0840 h1        1 BT8      0.096000
     32 H15        -1.5460   -3.2660    2.1550 h1        1 BT8      0.085000
     33 H15A       -2.4100   -3.1790    0.5380 h1        1 BT8      0.085000
     34 H22        -5.8080   -2.8230    3.4100 ha        1 BT8      0.170000
     35 H28        -8.9740   -8.0920    5.8410 hc        1 BT8      0.135000
     36 H28A       -9.8950   -9.6420    6.1510 hc        1 BT8      0.135000
     37 H28B       -8.0880   -9.5560    6.4180 hc        1 BT8      0.135000
     38 H01         8.5080    0.7790    1.0830 hc        1 BT8      0.094667
     39 H01A        7.9970    2.3500    1.8390 hc        1 BT8      0.094667
     40 H01B        8.1010    0.8420    2.8470 hc        1 BT8      0.094667
     41 H03         5.8010    3.0340    1.3580 ha        1 BT8      0.149000
     42 H04         3.4080    2.4250    0.8260 ha        1 BT8      0.157000
     43 H09         2.4500    1.1440   -1.0110 h1        1 BT8      0.108333
     44 H09A        2.4710   -0.6500   -1.3770 h1        1 BT8      0.108333
     45 H11        -0.3630   -1.9610    0.0190 hc        1 BT8      0.111000
     46 H12         0.4290   -2.2510    2.3930 hc        1 BT8      0.094500
     47 H12A        0.5320   -0.4530    2.5760 hc        1 BT8      0.094500
     48 H14        -1.8910   -0.7400    2.4020 hc        1 BT8      0.106000
     49 H14A       -2.6280   -0.7110    0.7490 hc        1 BT8      0.106000
     50 H18        -2.6090   -5.1570    1.5690 ha        1 BT8      0.141000
     51 H19        -3.7930   -7.2860    2.0770 ha        1 BT8      0.152000
     52 H27        -7.1770   -9.0210    3.7570 ho        1 BT8      0.309000
     53 H27A       -9.4280   -9.8550    3.7270 ha        1 BT8      0.072000
     54 C01         7.8290    1.2450    1.8400 c3        1 BT8     -0.165000
@<TRIPOS>BOND
     1    1   17 1
     2    1   29 1
     3    2   15 1
     4    2   18 1
     5    2   30 1
     6    2   31 1
     7    3   19 1
     8    3   20 1
     9    3   32 1
    10    3   33 1
    11    4    7 1
    12    4   20 1
    13    4   21 1
    14    5    6 1
    15    5   22 1
    16    5   25 1
    17    6    7 1
    18    6   23 1
    19    7   34 1
    20    8   27 1
    21    8   35 1
    22    8   36 1
    23    8   37 1
    24    9   10 1
    25    9   14 1
    26    9   54 1
    27   10   11 1
    28   10   41 1
    29   11   12 1
    30   11   42 1
    31   12   13 1
    32   12   15 1
    33   13   14 1
    34   15   16 1
    35   16   28 1
    36   16   43 1
    37   16   44 1
    38   17   18 1
    39   17   19 1
    40   17   45 1
    41   18   46 1
    42   18   47 1
    43   19   48 1
    44   19   49 1
    45   21   22 1
    46   21   50 1
    47   22   51 1
    48   23   24 1
    49   24   25 1
    50   25   26 1
    51   26   52 1
    52   27   53 1
    53   38   54 1
    54   39   54 1
    55   40   54 1
@<TRIPOS>SUBSTRUCTURE
     1 BT8         1 TEMP              0 ****  ****    0 ROOT
