@<TRIPOS>MOLECULE
molecule
   29    30     1     0     0
SMALL
bcc


@<TRIPOS>ATOM
      1 C01          0.0000     0.0000     0.0000 ca         1 BT9      -0.114000
      2 C02          1.3800     0.0000     0.0000 ca         1 BT9      -0.139000
      3 C03          2.0770     0.0000     1.1940 ca         1 BT9      -0.195000
      4 C04          1.3910     0.0000     2.4040 ca         1 BT9       0.116600
      5 C05          0.0040     0.0010     2.4150 ca         1 BT9      -0.145000
      6 C06         -0.6980     0.0010     1.2100 ca         1 BT9      -0.077600
      7 N07          2.1000    -0.0000     3.6090 nu         1 BT9      -0.683000
      8 C08          1.5550     0.6120     4.7400 ca         1 BT9       0.222600
      9 C09          1.8650     0.1350     6.0080 ca         1 BT9      -0.189500
     10 C10          1.3240     0.7430     7.1230 ca         1 BT9      -0.049000
     11 C11          0.4760     1.8260     6.9800 ca         1 BT9      -0.238300
     12 C12          0.1660     2.3040     5.7200 ca         1 BT9      -0.049000
     13 C13          0.7070     1.7030     4.6000 ca         1 BT9      -0.189500
     14 C14         -2.1750     0.0010     1.2120 c          1 BT9       0.880200
     15 O15         -2.8510     0.0020     0.0470 o          1 BT9      -0.831800
     16 O16         -2.7810     0.0020     2.2660 o          1 BT9      -0.831800
     17 C17         -0.1100     2.4880     8.2000 c3         1 BT9       0.676200
     18 F18         -1.3610     3.0280     7.8830 f          1 BT9      -0.232967
     19 F19         -0.2580     1.5410     9.2190 f          1 BT9      -0.232967
     20 F20          0.7420     3.5090     8.6330 f          1 BT9      -0.232967
     21 H1          -0.5420     0.0350    -0.9370 ha         1 BT9       0.157000
     22 H2           1.9190     0.0000    -0.9390 ha         1 BT9       0.108000
     23 H3           3.1600    -0.0010     1.1880 ha         1 BT9       0.104000
     24 H4          -0.5300    -0.0990     3.3520 ha         1 BT9       0.160000
     25 H5           2.9980    -0.4390     3.6610 hn         1 BT9       0.435800
     26 H6           2.5290    -0.7130     6.1210 ha         1 BT9       0.149000
     27 H7           1.5650     0.3720     8.1120 ha         1 BT9       0.138500
     28 H8          -0.4970     3.1540     5.6120 ha         1 BT9       0.138500
     29 H9           0.4630     2.0780     3.6130 ha         1 BT9       0.149000
@<TRIPOS>BOND
     1     1     2 ar
     2     1     6 ar
     3    16    14 1
     4     2     3 ar
     5    14    15 1
     6    14     6 1
     7     6     5 ar
     8     3     4 ar
     9     5     4 ar
    10     4     7 1
    11     7     8 1
    12     8     9 ar
    13     8    13 ar
    14     9    10 ar
    15    13    12 ar
    16    10    11 ar
    17    12    11 ar
    18    11    17 1
    19    18    17 1
    20    17    20 1
    21    17    19 1
    22     1    21 1
    23     2    22 1
    24     3    23 1
    25     5    24 1
    26     7    25 1
    27     9    26 1
    28    10    27 1
    29    12    28 1
    30    13    29 1
@<TRIPOS>SUBSTRUCTURE
     1 BT9         1 TEMP              0 ****  ****    0 ROOT
