@<TRIPOS>MOLECULE
BT9
   29    30     1     0     0
SMALL
bcc


@<TRIPOS>ATOM
      1 C01          0.0000     0.0000     0.0000 ca         1 BT9      -0.081000
      2 C02          1.3800     0.0000     0.0000 ca         1 BT9      -0.117000
      3 C03          2.0770     0.0000     1.1940 ca         1 BT9      -0.171000
      4 C04          1.3910     0.0000     2.4040 ca         1 BT9      -0.041400
      5 C05          0.0040     0.0010     2.4150 ca         1 BT9      -0.118000
      6 C06         -0.6980     0.0010     1.2100 ca         1 BT9      -0.075600
      7 N07          2.1000    -0.0000     3.6090 nu         1 BT9      -0.223000
      8 C08          1.5550     0.6120     4.7400 ca         1 BT9       0.076600
      9 C09          1.8650     0.1350     6.0080 ca         1 BT9      -0.175000
     10 C10          1.3240     0.7430     7.1230 ca         1 BT9      -0.004500
     11 C11          0.4760     1.8260     6.9800 ca         1 BT9      -0.278300
     12 C12          0.1660     2.3040     5.7200 ca         1 BT9      -0.004500
     13 C13          0.7070     1.7030     4.6000 ca         1 BT9      -0.175000
     14 C14         -2.1750     0.0010     1.2120 c          1 BT9       0.969200
     15 O15         -2.8510     0.0020     0.0470 o          1 BT9      -0.879800
     16 O16         -2.7810     0.0020     2.2660 o          1 BT9      -0.879800
     17 C17         -0.1100     2.4880     8.2000 c3         1 BT9       0.644200
     18 F18         -1.3610     3.0280     7.8830 f          1 BT9      -0.216633
     19 F19         -0.2580     1.5410     9.2190 f          1 BT9      -0.216633
     20 F20          0.7420     3.5090     8.6330 f          1 BT9      -0.216633
     21 H1          -0.5420     0.0350    -0.9370 ha         1 BT9       0.131000
     22 H2           1.9190     0.0000    -0.9390 ha         1 BT9       0.085000
     23 H3           3.1600    -0.0010     1.1880 ha         1 BT9       0.087000
     24 H4          -0.5300    -0.0990     3.3520 ha         1 BT9       0.140000
     25 H5           2.9980    -0.4390     3.6610 hn         1 BT9       0.273800
     26 H6           2.5290    -0.7130     6.1210 ha         1 BT9       0.126000
     27 H7           1.5650     0.3720     8.1120 ha         1 BT9       0.107500
     28 H8          -0.4970     3.1540     5.6120 ha         1 BT9       0.107500
     29 H9           0.4630     2.0780     3.6130 ha         1 BT9       0.126000
@<TRIPOS>BOND
     1     1     2 ar  
     2     1     6 ar  
     3     1    21 1   
     4     2     3 ar  
     5     2    22 1   
     6     3     4 ar  
     7     3    23 1   
     8     4     5 ar  
     9     4     7 1   
    10     5     6 ar  
    11     5    24 1   
    12     6    14 1   
    13     7     8 1   
    14     7    25 1   
    15     8     9 ar  
    16     8    13 ar  
    17     9    10 ar  
    18     9    26 1   
    19    10    11 ar  
    20    10    27 1   
    21    11    12 ar  
    22    11    17 1   
    23    12    13 ar  
    24    12    28 1   
    25    13    29 1   
    26    14    15 1   
    27    14    16 1   
    28    17    18 1   
    29    17    19 1   
    30    17    20 1   
@<TRIPOS>SUBSTRUCTURE
     1 BT9         1 TEMP              0 ****  ****    0 ROOT
