@<TRIPOS>MOLECULE
molecule
   33    32     1     0     0
SMALL
bcc


@<TRIPOS>ATOM
      1 C1           0.0000     0.0000     0.0000 c3         1 BTB       0.116400
      2 O1           1.4290     0.0000     0.0000 oh         1 BTB      -0.596800
      3 C2          -0.5100     0.0000     1.4430 c3         1 BTB       0.160200
      4 C3          -2.0390    -0.0240     1.4420 c3         1 BTB       0.116400
      5 O3          -2.5180     0.1440     2.7780 oh         1 BTB      -0.596800
      6 C4          -0.0200     1.2620     2.1550 c3         1 BTB       0.116400
      7 O4           1.4080     1.2490     2.2190 oh         1 BTB      -0.596800
      8 N           -0.0020    -1.1860     2.1410 n3         1 BTB      -0.631600
      9 C5           0.0440    -2.2710     1.1540 c3         1 BTB       0.116300
     10 C6          -1.3800    -2.7380     0.8420 c3         1 BTB       0.138900
     11 O6          -1.9330    -1.9230    -0.1930 oh         1 BTB      -0.621300
     12 C7           1.3890    -0.8950     2.5130 c3         1 BTB       0.116300
     13 C8           1.4130    -0.0970     3.8170 c3         1 BTB       0.138900
     14 O8           1.1360    -0.9700     4.9150 oh         1 BTB      -0.621300
     15 H11         -0.3610    -0.8840    -0.5110 h1         1 BTB       0.046867
     16 H12         -0.3610     0.8850    -0.5110 h1         1 BTB       0.046867
     17 HO1          1.7430     0.2150    -0.8630 ho         1 BTB       0.385333
     18 H31         -2.3860    -0.9720     1.0510 h1         1 BTB       0.046867
     19 H32         -2.4130     0.7820     0.8210 h1         1 BTB       0.046867
     20 HO3         -3.4400     0.3390     2.7590 ho         1 BTB       0.385333
     21 H41         -0.3490     2.1370     1.6080 h1         1 BTB       0.046867
     22 H42         -0.4260     1.2900     3.1590 h1         1 BTB       0.046867
     23 HO4          1.7340     2.1290     2.1330 ho         1 BTB       0.385333
     24 H51          0.5130    -1.9130     0.2460 h1         1 BTB       0.068200
     25 H52          0.6160    -3.0990     1.5540 h1         1 BTB       0.068200
     26 H61         -1.9910    -2.6540     1.7330 h1         1 BTB       0.038950
     27 H62         -1.3570    -3.7710     0.5160 h1         1 BTB       0.038950
     28 HO6         -2.4430    -2.4600    -0.7770 ho         1 BTB       0.389500
     29 H71          1.8590    -0.3160     1.7270 h1         1 BTB       0.068200
     30 H72          1.9290    -1.8240     2.6480 h1         1 BTB       0.068200
     31 H81          2.3910     0.3500     3.9500 h1         1 BTB       0.038950
     32 H82          0.6610     0.6830     3.7780 h1         1 BTB       0.038950
     33 HO8          1.5540    -0.6400     5.6930 ho         1 BTB       0.389500
@<TRIPOS>BOND
     1     1     2 1
     2     1     3 1
     3     1    15 1
     4     1    16 1
     5     2    17 1
     6     3     4 1
     7     3     6 1
     8     3     8 1
     9     4     5 1
    10     4    18 1
    11     4    19 1
    12     5    20 1
    13     6     7 1
    14     6    21 1
    15     6    22 1
    16     7    23 1
    17     8     9 1
    18     8    12 1
    19     9    10 1
    20     9    24 1
    21     9    25 1
    22    10    11 1
    23    10    26 1
    24    10    27 1
    25    11    28 1
    26    12    13 1
    27    12    29 1
    28    12    30 1
    29    13    14 1
    30    13    31 1
    31    13    32 1
    32    14    33 1
@<TRIPOS>SUBSTRUCTURE
     1 BTB         1 TEMP              0 ****  ****    0 ROOT
