@<TRIPOS>MOLECULE
BTD
   35    37     1     0     0
SMALL
bcc


@<TRIPOS>ATOM
      1 O5'          0.0000     0.0000     0.0000 oh         1 BTD      -0.585800
      2 C5'          1.4290     0.0000     0.0000 c3         1 BTD       0.223400
      3 C4'          1.9390     0.0000     1.4420 c3         1 BTD       0.172100
      4 O4'          1.5410    -1.2100     2.1220 os         1 BTD      -0.376600
      5 C1'          2.4370    -1.3820     3.2330 c3         1 BTD       0.236500
      6 N1           2.6760    -2.8080     3.4640 n          1 BTD       0.048000
      7 C6           2.3700    -3.3500     4.6810 cc         1 BTD      -0.076400
      8 C2           3.1870    -3.5580     2.4750 c          1 BTD       0.595500
      9 O2           3.4450    -3.0340     1.4080 o          1 BTD      -0.701500
     10 N3           3.4310    -4.8710     2.6320 ns         1 BTD      -0.129500
     11 C4           3.1540    -5.4800     3.8050 c          1 BTD       0.621700
     12 O4           3.3680    -6.6690     3.9520 o          1 BTD      -0.637500
     13 C5           2.5890    -4.6780     4.8990 cd         1 BTD      -0.170400
     14 C55          2.2690    -5.2950     6.2040 cd         1 BTD       0.127100
     15 C44          1.3980    -6.3130     6.4850 cc         1 BTD      -0.119000
     16 C33          1.2660    -6.7300     7.7940 cc         1 BTD      -0.120000
     17 C22          1.9950    -6.1140     8.7590 cd         1 BTD       0.137000
     18 S11          2.9120    -4.9040     7.8210 ss         1 BTD      -0.301800
     19 Br           2.0270    -6.4500    10.6190 br         1 BTD      -0.011100
     20 C2'          3.7590    -0.6800     2.8660 c3         1 BTD      -0.102400
     21 C3'          3.4870    -0.0560     1.4730 c3         1 BTD       0.160100
     22 O3'          4.0520     1.2530     1.3810 oh         1 BTD      -0.579800
     23 HO5'        -0.3140     0.0670    -0.8860 ho         1 BTD       0.390000
     24 H5'1         1.7900    -0.8840    -0.5110 h1         1 BTD      -0.000800
     25 H5'2         1.7900     0.8840    -0.5110 h1         1 BTD      -0.000800
     26 H4'          1.5820     0.8700     1.9790 h1         1 BTD       0.036700
     27 H1'          2.0140    -0.9260     4.1190 h2         1 BTD       0.035700
     28 H6           1.9550    -2.7290     5.4660 h4         1 BTD       0.145000
     29 HN3          3.8130    -5.4010     1.8740 hn         1 BTD       0.209500
     30 H44          0.8280    -6.7860     5.6950 ha         1 BTD       0.125000
     31 H33          0.5870    -7.5340     8.0480 ha         1 BTD       0.123000
     32 H2'1         3.9880     0.0950     3.5880 hc         1 BTD       0.042200
     33 H2'2         4.5650    -1.4010     2.8050 hc         1 BTD       0.042200
     34 H3'          3.8620    -0.7000     0.6870 h1         1 BTD       0.043700
     35 HO3'         4.8660     1.2110     0.9070 ho         1 BTD       0.396000
@<TRIPOS>BOND
     1     1     2 1   
     2     1    23 1   
     3     2     3 1   
     4     2    24 1   
     5     2    25 1   
     6     3     4 1   
     7     3    21 1   
     8     3    26 1   
     9     4     5 1   
    10     5     6 1   
    11     5    20 1   
    12     5    27 1   
    13     6     7 1   
    14     6     8 1   
    15     7    13 2   
    16     7    28 1   
    17     8     9 2   
    18     8    10 1   
    19    10    11 1   
    20    10    29 1   
    21    11    12 2   
    22    11    13 1   
    23    13    14 1   
    24    14    15 2   
    25    14    18 1   
    26    15    16 1   
    27    15    30 1   
    28    16    17 2   
    29    16    31 1   
    30    17    18 1   
    31    17    19 1   
    32    20    21 1   
    33    20    32 1   
    34    20    33 1   
    35    21    22 1   
    36    21    34 1   
    37    22    35 1   
@<TRIPOS>SUBSTRUCTURE
     1 BTD         1 TEMP              0 ****  ****    0 ROOT
