@<TRIPOS>MOLECULE
molecule
   15    16     1     0     0
SMALL
bcc


@<TRIPOS>ATOM
      1 N10          0.0000     0.0000     0.0000 nv         1 BTE      -0.957200
      2 C1           1.3940     0.0000     0.0000 ca         1 BTE       0.224600
      3 C6           2.0780     0.0000     1.1780 ca         1 BTE      -0.168000
      4 C5           3.4700    -0.0000     1.2100 ca         1 BTE      -0.101000
      5 C4           4.2100    -0.0010     0.0740 ca         1 BTE      -0.105000
      6 C3           3.5670    -0.0010    -1.1900 ca         1 BTE      -0.052000
      7 N9           4.0650    -0.0010    -2.4160 nc         1 BTE      -0.387500
      8 S8           2.8990     0.0000    -3.4480 ss         1 BTE       0.724000
      9 N7           1.6800     0.0000    -2.4830 nc         1 BTE      -0.377500
     10 C2           2.1080    -0.0060    -1.2320 ca         1 BTE      -0.092000
     11 H1          -0.5000     0.7920     0.3540 hn         1 BTE       0.433800
     12 H2          -0.5000    -0.7650    -0.4070 hn         1 BTE       0.433800
     13 H3           1.5260     0.0010     2.1110 ha         1 BTE       0.142000
     14 H4           3.9760     0.0000     2.1680 ha         1 BTE       0.135000
     15 H5           5.2920    -0.0010     0.1310 ha         1 BTE       0.147000
@<TRIPOS>BOND
     1     1     2 1
     2     9     8 1
     3     9    10 2
     4     8     7 1
     5     2    10 ar
     6     2     3 ar
     7    10     6 ar
     8     3     4 ar
     9     7     6 2
    10     6     5 ar
    11     4     5 ar
    12     1    11 1
    13     1    12 1
    14     3    13 1
    15     4    14 1
    16     5    15 1
@<TRIPOS>SUBSTRUCTURE
     1 BTE         1 TEMP              0 ****  ****    0 ROOT
