@<TRIPOS>MOLECULE
BTE
   15    16     1     0     0
SMALL
bcc


@<TRIPOS>ATOM
      1 N10          0.0000     0.0000     0.0000 nv         1 BTE      -0.505200
      2 C1           1.3940     0.0000     0.0000 ca         1 BTE       0.077600
      3 C6           2.0780     0.0000     1.1780 ca         1 BTE      -0.140000
      4 C5           3.4700    -0.0000     1.2100 ca         1 BTE      -0.067000
      5 C4           4.2100    -0.0010     0.0740 ca         1 BTE      -0.085000
      6 C3           3.5670    -0.0010    -1.1900 ca         1 BTE      -0.069000
      7 N9           4.0650    -0.0010    -2.4160 nc         1 BTE      -0.241500
      8 S8           2.8990     0.0000    -3.4480 ss         1 BTE       0.490000
      9 N7           1.6800     0.0000    -2.4830 nc         1 BTE      -0.232500
     10 C2           2.1080    -0.0060    -1.2320 ca         1 BTE      -0.111000
     11 H1          -0.5000     0.7920     0.3540 hn         1 BTE       0.274300
     12 H2          -0.5000    -0.7650    -0.4070 hn         1 BTE       0.274300
     13 H3           1.5260     0.0010     2.1110 ha         1 BTE       0.114000
     14 H4           3.9760     0.0000     2.1680 ha         1 BTE       0.104000
     15 H5           5.2920    -0.0010     0.1310 ha         1 BTE       0.118000
@<TRIPOS>BOND
     1     1     2 1   
     2     1    11 1   
     3     1    12 1   
     4     2     3 ar  
     5     2    10 ar  
     6     3     4 ar  
     7     3    13 1   
     8     4     5 ar  
     9     4    14 1   
    10     5     6 ar  
    11     5    15 1   
    12     6     7 2   
    13     6    10 ar  
    14     7     8 1   
    15     8     9 1   
    16     9    10 2   
@<TRIPOS>SUBSTRUCTURE
     1 BTE         1 TEMP              0 ****  ****    0 ROOT
