@<TRIPOS>MOLECULE
BTG
   52    54     1     0     0
SMALL
bcc


@<TRIPOS>ATOM
      1 C13          0.0000     0.0000     0.0000 ca         1 BTG      -0.089000
      2 C15         -0.0200    -0.0030     2.3970 ca         1 BTG      -0.067000
      3 C17          2.1080    -0.0260     3.6970 cp         1 BTG      -0.097000
      4 C20          3.5010    -0.0670     6.1000 ca         1 BTG      -0.059000
      5 C21          2.4870     0.8730     5.8990 ca         1 BTG      -0.118600
      6 C22          2.1550     1.8430     6.9620 c          1 BTG       0.978200
      7 C26          5.5980     0.1210     0.1290 c3         1 BTG      -0.019300
      8 O01          7.7080     0.1040    -1.0540 oh         1 BTG      -0.566800
      9 C02          6.2920     0.0700    -1.2360 c3         1 BTG       0.165100
     10 C03          5.8980    -1.2280    -1.9490 c3         1 BTG       0.135100
     11 O04          6.3640    -2.3480    -1.1940 oh         1 BTG      -0.546800
     12 C05          4.3730    -1.2920    -2.0690 c3         1 BTG       0.173100
     13 C06          3.9680    -2.6130    -2.7270 c3         1 BTG       0.223400
     14 O07          2.5560    -2.6230    -2.9460 oh         1 BTG      -0.577800
     15 O08          3.7890    -1.2100    -0.7680 os         1 BTG      -0.385600
     16 C09          4.0840     0.0040    -0.0720 c3         1 BTG       0.370900
     17 O10          3.4350    -0.0070     1.2010 os         1 BTG      -0.242900
     18 C11          2.0760     0.0000     1.1990 ca         1 BTG       0.137100
     19 C12          1.3820     0.0000     0.0000 ca         1 BTG      -0.207000
     20 C14         -0.6990     0.0010     1.1940 ca         1 BTG      -0.149000
     21 C16          1.3730    -0.0090     2.4080 cp         1 BTG      -0.011000
     22 C18          3.1220    -0.9590     3.9100 ca         1 BTG      -0.082000
     23 C19          3.8110    -0.9730     5.1070 ca         1 BTG      -0.134000
     24 O23          1.2720     2.6590     6.7850 o          1 BTG      -0.892800
     25 O24          2.8310     1.8240     8.1280 o          1 BTG      -0.892800
     26 C25          1.7880     0.8900     4.6930 ca         1 BTG      -0.068000
     27 C29          6.1720     2.7900     2.8120 c3         1 BTG      -0.066100
     28 O30          5.5470     0.5150     2.7950 o          1 BTG      -0.587100
     29 H131        -0.5390     0.0020    -0.9400 ha         1 BTG       0.088000
     30 H151        -0.5700    -0.0030     3.3300 ha         1 BTG       0.118000
     31 H201         4.0450    -0.0830     7.0360 ha         1 BTG       0.123000
     32 H261         5.9450    -0.7040     0.7390 h1         1 BTG       0.102700
     33 H011         8.0940     0.6730    -1.6990 ho         1 BTG       0.380000
     34 H021         5.9780     0.9190    -1.8320 h1         1 BTG      -0.001300
     35 H031         6.3380    -1.2430    -2.9380 h1         1 BTG      -0.002300
     36 H041         7.0930    -2.7470    -1.6410 ho         1 BTG       0.384000
     37 H051         4.0250    -0.4620    -2.6720 h1         1 BTG       0.012700
     38 H062         4.4810    -2.7170    -3.6750 h1         1 BTG      -0.003800
     39 H061         4.2390    -3.4370    -2.0780 h1         1 BTG      -0.003800
     40 H071         2.3230    -3.3790    -3.4600 ho         1 BTG       0.384000
     41 H091         3.7330     0.8470    -0.6540 h2         1 BTG      -0.008300
     42 H121         1.9240    -0.0010    -0.9380 ha         1 BTG       0.119000
     43 H141        -1.7820     0.0030     1.1860 ha         1 BTG       0.094000
     44 H181         3.3710    -1.6730     3.1350 ha         1 BTG       0.097000
     45 H191         4.5990    -1.6990     5.2680 ha         1 BTG       0.084000
     46 H251         1.0000     1.6160     4.5310 ha         1 BTG       0.119000
     47 H293         7.1580     3.1230     2.5090 hc         1 BTG       0.023033
     48 H291         5.4370     3.5330     2.5280 hc         1 BTG       0.023033
     49 H292         6.1520     2.6530     3.8860 hc         1 BTG       0.023033
     50 N27          5.9070     1.3910     0.7900 ns         1 BTG      -0.206900
     51 H271         6.1640     2.1890     0.2430 hn         1 BTG       0.159500
     52 C28          5.8530     1.4830     2.1330 c          1 BTG       0.565100
@<TRIPOS>BOND
     1     1    19 ar  
     2     1    20 ar  
     3     1    29 1   
     4     2    20 ar  
     5     2    21 ar  
     6     2    30 1   
     7     3    21 1   
     8     3    22 ar  
     9     3    26 ar  
    10     4     5 ar  
    11     4    23 ar  
    12     4    31 1   
    13     5     6 1   
    14     5    26 ar  
    15     6    24 1   
    16     6    25 1   
    17     7     9 1   
    18     7    16 1   
    19     7    32 1   
    20     7    50 1   
    21     8     9 1   
    22     8    33 1   
    23     9    10 1   
    24     9    34 1   
    25    10    11 1   
    26    10    12 1   
    27    10    35 1   
    28    11    36 1   
    29    12    13 1   
    30    12    15 1   
    31    12    37 1   
    32    13    14 1   
    33    13    38 1   
    34    13    39 1   
    35    14    40 1   
    36    15    16 1   
    37    16    17 1   
    38    16    41 1   
    39    17    18 1   
    40    18    19 ar  
    41    18    21 ar  
    42    19    42 1   
    43    20    43 1   
    44    22    23 ar  
    45    22    44 1   
    46    23    45 1   
    47    26    46 1   
    48    27    47 1   
    49    27    48 1   
    50    27    49 1   
    51    27    52 1   
    52    28    52 2   
    53    50    51 1   
    54    50    52 1   
@<TRIPOS>SUBSTRUCTURE
     1 BTG         1 TEMP              0 ****  ****    0 ROOT
