@<TRIPOS>MOLECULE
molecule
   52    54     1     0     0
SMALL
bcc


@<TRIPOS>ATOM
      1 C13          0.0000     0.0000     0.0000 ca         1 BTG      -0.118000
      2 C15         -0.0200    -0.0030     2.3970 ca         1 BTG      -0.093000
      3 C17          2.1080    -0.0260     3.6970 cp         1 BTG      -0.093000
      4 C20          3.5010    -0.0670     6.1000 ca         1 BTG      -0.086000
      5 C21          2.4870     0.8730     5.8990 ca         1 BTG      -0.118600
      6 C22          2.1550     1.8430     6.9620 c          1 BTG       0.885200
      7 C26          5.5980     0.1210     0.1290 c3         1 BTG       0.102700
      8 O01          7.7080     0.1040    -1.0540 oh         1 BTG      -0.582800
      9 C02          6.2920     0.0700    -1.2360 c3         1 BTG       0.121100
     10 C03          5.8980    -1.2280    -1.9490 c3         1 BTG       0.097100
     11 O04          6.3640    -2.3480    -1.1940 oh         1 BTG      -0.567800
     12 C05          4.3730    -1.2920    -2.0690 c3         1 BTG       0.157100
     13 C06          3.9680    -2.6130    -2.7270 c3         1 BTG       0.150400
     14 O07          2.5560    -2.6230    -2.9460 oh         1 BTG      -0.594800
     15 O08          3.7890    -1.2100    -0.7680 os         1 BTG      -0.404600
     16 C09          4.0840     0.0040    -0.0720 c3         1 BTG       0.333900
     17 O10          3.4350    -0.0070     1.2010 os         1 BTG      -0.260900
     18 C11          2.0760     0.0000     1.1990 ca         1 BTG       0.129100
     19 C12          1.3820     0.0000     0.0000 ca         1 BTG      -0.206000
     20 C14         -0.6990     0.0010     1.1940 ca         1 BTG      -0.169000
     21 C16          1.3730    -0.0090     2.4080 cp         1 BTG      -0.017000
     22 C18          3.1220    -0.9590     3.9100 ca         1 BTG      -0.096000
     23 C19          3.8110    -0.9730     5.1070 ca         1 BTG      -0.157000
     24 O23          1.2720     2.6590     6.7850 o          1 BTG      -0.844800
     25 O24          2.8310     1.8240     8.1280 o          1 BTG      -0.844800
     26 C25          1.7880     0.8900     4.6930 ca         1 BTG      -0.091000
     27 C29          6.1720     2.7900     2.8120 c3         1 BTG      -0.166100
     28 O30          5.5470     0.5150     2.7950 o          1 BTG      -0.549100
     29 H131        -0.5390     0.0020    -0.9400 ha         1 BTG       0.113000
     30 H151        -0.5700    -0.0030     3.3300 ha         1 BTG       0.147000
     31 H201         4.0450    -0.0830     7.0360 ha         1 BTG       0.148000
     32 H261         5.9450    -0.7040     0.7390 h1         1 BTG       0.131700
     33 H011         8.0940     0.6730    -1.6990 ho         1 BTG       0.394000
     34 H021         5.9780     0.9190    -1.8320 h1         1 BTG       0.029700
     35 H031         6.3380    -1.2430    -2.9380 h1         1 BTG       0.029700
     36 H041         7.0930    -2.7470    -1.6410 ho         1 BTG       0.400000
     37 H051         4.0250    -0.4620    -2.6720 h1         1 BTG       0.043700
     38 H062         4.4810    -2.7170    -3.6750 h1         1 BTG       0.034200
     39 H061         4.2390    -3.4370    -2.0780 h1         1 BTG       0.034200
     40 H071         2.3230    -3.3790    -3.4600 ho         1 BTG       0.399000
     41 H091         3.7330     0.8470    -0.6540 h2         1 BTG       0.024700
     42 H121         1.9240    -0.0010    -0.9380 ha         1 BTG       0.131000
     43 H141        -1.7820     0.0030     1.1860 ha         1 BTG       0.117000
     44 H181         3.3710    -1.6730     3.1350 ha         1 BTG       0.118000
     45 H191         4.5990    -1.6990     5.2680 ha         1 BTG       0.107000
     46 H251         1.0000     1.6160     4.5310 ha         1 BTG       0.142000
     47 H293         7.1580     3.1230     2.5090 hc         1 BTG       0.060367
     48 H291         5.4370     3.5330     2.5280 hc         1 BTG       0.060367
     49 H292         6.1520     2.6530     3.8860 hc         1 BTG       0.060367
     50 N27          5.9070     1.3910     0.7900 ns         1 BTG      -0.592900
     51 H271         6.1640     2.1890     0.2430 hn         1 BTG       0.298500
     52 C28          5.8530     1.4830     2.1330 c          1 BTG       0.653100
@<TRIPOS>BOND
     1    13    12 1
     2    13    14 1
     3    10    12 1
     4    10    11 1
     5    10     9 1
     6    12    15 1
     7     8     9 1
     8     9     7 1
     9    15    16 1
    10     7    16 1
    11     7    50 1
    12    16    17 1
    13    50    52 1
    14    17    18 1
    15    52    28 2
    16    52    27 1
    17    19    18 ar
    18    19     1 ar
    19    18    21 ar
    20     1    20 ar
    21    21     3 1
    22    21     2 ar
    23    20     2 ar
    24     3    22 ar
    25     3    26 ar
    26    22    23 ar
    27    26     5 ar
    28    23     4 ar
    29    24     6 1
    30     5     4 ar
    31     5     6 1
    32     6    25 1
    33     1    29 1
    34     2    30 1
    35     4    31 1
    36     7    32 1
    37     8    33 1
    38     9    34 1
    39    10    35 1
    40    11    36 1
    41    12    37 1
    42    13    38 1
    43    13    39 1
    44    14    40 1
    45    16    41 1
    46    19    42 1
    47    20    43 1
    48    22    44 1
    49    23    45 1
    50    26    46 1
    51    50    51 1
    52    27    47 1
    53    27    48 1
    54    27    49 1
@<TRIPOS>SUBSTRUCTURE
     1 BTG         1 TEMP              0 ****  ****    0 ROOT
