@<TRIPOS>MOLECULE
molecule
   71    74     1     0     0
SMALL
bcc


@<TRIPOS>ATOM
      1 O40          0.0000     0.0000     0.0000 o          1 BTH      -0.610100
      2 C25          1.2190     0.0000     0.0000 c          1 BTH       0.673100
      3 N4           1.9350     0.0000     1.1310 ns         1 BTH      -0.536900
      4 C33          1.2810     0.1370     2.4310 c3         1 BTH       0.014700
      5 C34          1.1110     1.5630     2.8940 c          1 BTH       0.555100
      6 O39          0.5240     1.7780     3.9440 o          1 BTH      -0.551100
      7 C31          1.6560     2.7060     2.0840 c3         1 BTH      -0.195100
      8 C35          2.0070    -0.6710     3.5110 c3         1 BTH      -0.199400
      9 C15          1.6290    -2.1380     3.4470 c          1 BTH       0.907600
     10 O37          0.6480    -2.4940     2.7580 o          1 BTH      -0.839300
     11 O36          2.3180    -2.9570     4.0920 o          1 BTH      -0.839300
     12 C24          1.9230     0.0200    -1.3350 c3         1 BTH      -0.088400
     13 C26          2.6890     1.2990    -1.5740 cc         1 BTH      -0.069400
     14 S41          4.3980     1.4330    -1.6740 ss         1 BTH      -0.064800
     15 C27          2.0370     2.5260    -1.7570 cd         1 BTH      -0.154000
     16 C28          2.9670     3.5150    -2.1740 cd         1 BTH      -0.131000
     17 C14          4.2080     3.0170    -2.2240 cc         1 BTH      -0.151100
     18 C23          2.7820    -1.2270    -1.5480 c3         1 BTH      -0.080400
     19 C22          2.3710    -1.9320    -2.8390 c3         1 BTH      -0.079400
     20 C9           3.3510    -1.6250    -3.9640 c3         1 BTH      -0.110400
     21 C10          3.2910    -2.6470    -5.0950 c3         1 BTH       0.106000
     22 N3           4.4380    -3.5400    -5.0780 ns         1 BTH      -0.567900
     23 C17          5.5240    -3.3960    -5.8460 c          1 BTH       0.677700
     24 O38          5.6290    -2.5090    -6.6790 o          1 BTH      -0.618100
     25 C30          6.6480    -4.3840    -5.6770 ca         1 BTH      -0.180600
     26 C32          6.8870    -4.9610    -4.4300 ca         1 BTH      -0.060500
     27 C19          7.9250    -5.8780    -4.2690 ca         1 BTH      -0.189000
     28 C13          7.4510    -4.7370    -6.7660 ca         1 BTH      -0.060500
     29 C12          8.4870    -5.6570    -6.6020 ca         1 BTH      -0.189000
     30 C11          8.7300    -6.2370    -5.3540 ca         1 BTH       0.183600
     31 N2           9.7600    -7.1260    -5.2420 nu         1 BTH      -0.735300
     32 C20         10.1380    -7.8150    -4.1270 ca         1 BTH       0.570900
     33 N1           9.2880    -8.0190    -3.1060 nb         1 BTH      -0.718000
     34 C16         11.4130    -8.3750    -4.0670 ca         1 BTH       0.261900
     35 N5          11.7890    -9.0790    -2.9870 nb         1 BTH      -0.615000
     36 C29         10.9340    -9.2780    -1.9710 ca         1 BTH       0.268300
     37 C21          9.6560    -8.7280    -2.0290 ca         1 BTH       0.362300
     38 C7          11.3210   -10.0250    -0.8590 ca         1 BTH      -0.148300
     39 C8          10.4240   -10.2250     0.1920 ca         1 BTH      -0.144000
     40 C18          9.1420    -9.6800     0.1290 ca         1 BTH      -0.111000
     41 C6           8.7570    -8.9310    -0.9820 ca         1 BTH      -0.175300
     42 HN4          2.9310    -0.0960     1.0860 hn         1 BTH       0.308500
     43 H33          0.2890    -0.2850     2.3310 h1         1 BTH       0.144700
     44 H311         1.6560     3.6070     2.6850 hc         1 BTH       0.051367
     45 H312         2.6690     2.4780     1.7750 hc         1 BTH       0.051367
     46 H313         1.0360     2.8560     1.2080 hc         1 BTH       0.051367
     47 H351         3.0760    -0.5740     3.3680 hc         1 BTH       0.042200
     48 H352         1.7420    -0.2790     4.4850 hc         1 BTH       0.042200
     49 H24          1.1460    -0.0140    -2.0890 hc         1 BTH       0.087700
     50 H27          0.9770     2.6950    -1.6040 ha         1 BTH       0.166000
     51 H28          2.7070     4.5380    -2.4180 ha         1 BTH       0.146000
     52 H14          5.1730     3.4460    -2.4670 h4         1 BTH       0.150000
     53 H231         2.6470    -1.9030    -0.7120 hc         1 BTH       0.060200
     54 H232         3.8240    -0.9390    -1.6120 hc         1 BTH       0.060200
     55 H221         1.3820    -1.5970    -3.1280 hc         1 BTH       0.047200
     56 H222         2.3480    -3.0010    -2.6690 hc         1 BTH       0.047200
     57 H91          4.3560    -1.6120    -3.5580 hc         1 BTH       0.053200
     58 H92          3.1250    -0.6450    -4.3670 hc         1 BTH       0.053200
     59 H101         3.2660    -2.1240    -6.0430 h1         1 BTH       0.057200
     60 H102         2.3860    -3.2340    -4.9920 h1         1 BTH       0.057200
     61 HN3          4.4130    -4.3180    -4.4490 hn         1 BTH       0.312500
     62 H32          6.2690    -4.6900    -3.5830 ha         1 BTH       0.145000
     63 H19          8.1040    -6.3210    -3.2970 ha         1 BTH       0.151000
     64 H13          7.2700    -4.2930    -7.7370 ha         1 BTH       0.145000
     65 H12          9.1050    -5.9270    -7.4500 ha         1 BTH       0.151000
     66 HN2         10.2980    -7.2910    -6.0700 hn         1 BTH       0.445800
     67 H16         12.1030    -8.2400    -4.8920 h4         1 BTH       0.027100
     68 H7          12.2950   -10.4820    -0.7310 ha         1 BTH       0.145000
     69 H8          10.7180   -10.7990     1.0620 ha         1 BTH       0.136000
     70 H18          8.4610    -9.8450     0.9560 ha         1 BTH       0.143000
     71 H6           7.7300    -8.5930    -0.9090 ha         1 BTH       0.156000
@<TRIPOS>BOND
     1     1     2 2
     2     2     3 1
     3     2    12 1
     4     3     4 1
     5     3    42 1
     6     4     5 1
     7     4     8 1
     8     4    43 1
     9     5     6 2
    10     5     7 1
    11     7    44 1
    12     7    45 1
    13     7    46 1
    14     8     9 1
    15     8    47 1
    16     8    48 1
    17     9    10 1
    18     9    11 1
    19    12    13 1
    20    12    18 1
    21    12    49 1
    22    13    14 1
    23    13    15 2
    24    14    17 1
    25    15    16 1
    26    15    50 1
    27    16    17 2
    28    16    51 1
    29    17    52 1
    30    18    19 1
    31    18    53 1
    32    18    54 1
    33    19    20 1
    34    19    55 1
    35    19    56 1
    36    20    21 1
    37    20    57 1
    38    20    58 1
    39    21    22 1
    40    21    59 1
    41    21    60 1
    42    22    23 1
    43    22    61 1
    44    23    24 2
    45    23    25 1
    46    25    26 ar
    47    25    28 ar
    48    26    27 ar
    49    26    62 1
    50    27    30 ar
    51    27    63 1
    52    28    29 ar
    53    28    64 1
    54    29    30 ar
    55    29    65 1
    56    30    31 1
    57    31    32 1
    58    31    66 1
    59    32    33 ar
    60    32    34 ar
    61    33    37 ar
    62    34    35 ar
    63    34    67 1
    64    35    36 ar
    65    36    37 ar
    66    36    38 ar
    67    37    41 ar
    68    38    39 ar
    69    38    68 1
    70    39    40 ar
    71    39    69 1
    72    40    41 ar
    73    40    70 1
    74    41    71 1
@<TRIPOS>SUBSTRUCTURE
     1 BTH         1 TEMP              0 ****  ****    0 ROOT
