@<TRIPOS>MOLECULE
molecule
   31    32     1     0     0
SMALL
bcc


@<TRIPOS>ATOM
      1 C11          0.0000     0.0000     0.0000 c          1 BTI       0.567900
      2 O11          1.2080     0.0000     0.0000 o          1 BTI      -0.521100
      3 C10         -0.7530     0.0000     1.3060 c3         1 BTI      -0.203400
      4 C9          -1.7240     1.1820     1.3350 c3         1 BTI      -0.075400
      5 C8          -2.4890     1.1810     2.6590 c3         1 BTI      -0.082400
      6 C7          -3.4610     2.3640     2.6870 c3         1 BTI      -0.065400
      7 C2          -4.2250     2.3630     4.0130 c3         1 BTI       0.036400
      8 S1          -5.4060     0.9470     4.0970 ss         1 BTI      -0.374200
      9 C6          -6.6690     1.7570     5.1710 c3         1 BTI       0.023700
     10 C5          -6.5380     3.2320     4.7370 c3         1 BTI       0.081700
     11 N3          -7.5160     3.5100     3.6730 ns         1 BTI      -0.597900
     12 C3          -6.8650     3.9380     2.5830 c          1 BTI       0.819500
     13 O3          -7.4290     4.2420     1.5500 o          1 BTI      -0.679500
     14 N2          -5.5350     4.0010     2.7350 ns         1 BTI      -0.596900
     15 C4          -5.1860     3.5680     4.0980 c3         1 BTI       0.090700
     16 H11         -0.5410    -0.0460    -0.9370 h4         1 BTI      -0.004800
     17 H102        -1.3070    -0.9260     1.4030 hc         1 BTI       0.069700
     18 H103        -0.0520     0.0890     2.1270 hc         1 BTI       0.069700
     19 H92         -2.4250     1.0930     0.5130 hc         1 BTI       0.046200
     20 H93         -1.1700     2.1070     1.2380 hc         1 BTI       0.046200
     21 H82         -1.7890     1.2700     3.4810 hc         1 BTI       0.052700
     22 H83         -3.0440     0.2560     2.7560 hc         1 BTI       0.052700
     23 H72         -4.1620     2.2750     1.8660 hc         1 BTI       0.058700
     24 H73         -2.9060     3.2890     2.5900 hc         1 BTI       0.058700
     25 H2          -3.5480     2.3510     4.8590 h1         1 BTI       0.079700
     26 H62         -7.6420     1.4100     4.8430 h1         1 BTI       0.092700
     27 H63         -6.3160     1.6880     6.1930 h1         1 BTI       0.092700
     28 H5          -6.7180     3.8840     5.5830 h1         1 BTI       0.066700
     29 HN3         -8.5070     3.3970     3.7510 hn         1 BTI       0.363500
     30 HN2         -4.8840     4.2970     2.0350 hn         1 BTI       0.363500
     31 H4          -4.7150     4.3820     4.6350 h1         1 BTI       0.066700
@<TRIPOS>BOND
     1     1     2 2
     2     1     3 1
     3     1    16 1
     4     3     4 1
     5     3    17 1
     6     3    18 1
     7     4     5 1
     8     4    19 1
     9     4    20 1
    10     5     6 1
    11     5    21 1
    12     5    22 1
    13     6     7 1
    14     6    23 1
    15     6    24 1
    16     7     8 1
    17     7    15 1
    18     7    25 1
    19     8     9 1
    20     9    10 1
    21     9    26 1
    22     9    27 1
    23    10    11 1
    24    10    15 1
    25    10    28 1
    26    11    12 1
    27    11    29 1
    28    12    13 2
    29    12    14 1
    30    14    15 1
    31    14    30 1
    32    15    31 1
@<TRIPOS>SUBSTRUCTURE
     1 BTI         1 TEMP              0 ****  ****    0 ROOT
