@<TRIPOS>MOLECULE
molecule
   19    18     1     0     0
SMALL
bcc


@<TRIPOS>ATOM
      1 O1           0.0000     0.0000     0.0000 o          1 BTL      -0.414100
      2 C            1.2080     0.0000     0.0000 c          1 BTL       0.526900
      3 CA           1.9620     0.0000     1.3050 c3         1 BTL      -0.020200
      4 N            2.8950    -1.1340     1.3310 n4         1 BTL      -0.572800
      5 C3           3.8450    -1.0120     0.2170 c3         1 BTL       0.091100
      6 C2           2.1440    -2.3900     1.1980 c3         1 BTL       0.091100
      7 C1           3.6300    -1.1350     2.6030 c3         1 BTL       0.091100
      8 H            1.7490     0.0550    -0.9370 h4         1 BTL       0.035200
      9 HA1          1.2610    -0.0900     2.1260 hx         1 BTL       0.123700
     10 HA2          2.5150     0.9260     1.4020 hx         1 BTL       0.123700
     11 H31          4.1830     0.0140     0.1410 hx         1 BTL       0.102367
     12 H32          4.6950    -1.6600     0.3940 hx         1 BTL       0.102367
     13 H33          3.3580    -1.3010    -0.7070 hx         1 BTL       0.102367
     14 H21          2.8160    -3.2290     1.3300 hx         1 BTL       0.102367
     15 H22          1.3670    -2.4280     1.9530 hx         1 BTL       0.102367
     16 H23          1.6930    -2.4390     0.2140 hx         1 BTL       0.102367
     17 H11          4.2100    -0.2240     2.6850 hx         1 BTL       0.102367
     18 H12          2.9280    -1.1910     3.4250 hx         1 BTL       0.102367
     19 H13          4.2940    -1.9900     2.6350 hx         1 BTL       0.102367
@<TRIPOS>BOND
     1     1     2 2
     2     2     3 1
     3     2     8 1
     4     3     4 1
     5     3     9 1
     6     3    10 1
     7     4     5 1
     8     4     6 1
     9     4     7 1
    10     5    11 1
    11     5    12 1
    12     5    13 1
    13     6    14 1
    14     6    15 1
    15     6    16 1
    16     7    17 1
    17     7    18 1
    18     7    19 1
@<TRIPOS>SUBSTRUCTURE
     1 BTL         1 TEMP              0 ****  ****    0 ROOT
