@<TRIPOS>MOLECULE
BTM
   36    36     1     0     0
SMALL
bcc


@<TRIPOS>ATOM
      1 N            0.0000     0.0000     0.0000 n4         1 BTM       0.057200
      2 C1           1.4690     0.0000     0.0000 c3         1 BTM       0.040100
      3 C2          -0.4900     0.0000     1.3850 c3         1 BTM      -0.034533
      4 C3           0.0200    -1.2500     2.1050 c3         1 BTM      -0.016767
      5 C4          -0.4890     1.2000    -0.6920 c3         1 BTM      -0.034533
      6 C5           0.0220     1.2010    -2.1350 c3         1 BTM      -0.016767
      7 C6          -0.4890    -1.1990    -0.6930 c3         1 BTM      -0.034533
      8 C7          -2.0190    -1.1990    -0.6940 c3         1 BTM      -0.016767
      9 C8           1.9720     1.2300     0.7120 ca         1 BTM      -0.181300
     10 C9           2.2020     1.1950     2.0740 ca         1 BTM      -0.093000
     11 C10          2.6620     2.3250     2.7260 ca         1 BTM      -0.076000
     12 C11          2.8930     3.4870     2.0160 ca         1 BTM      -0.050000
     13 C12          2.6640     3.5220     0.6530 ca         1 BTM      -0.076000
     14 C13          2.2080     2.3910    -0.0000 ca         1 BTM      -0.093000
     15 H1           1.8300    -0.8850     0.5100 hx         1 BTM       0.087700
     16 H1A          1.8300     0.0010    -1.0210 hx         1 BTM       0.087700
     17 H2          -0.1290     0.8840     1.8960 hx         1 BTM       0.086367
     18 H2A         -1.5730     0.0000     1.3850 hx         1 BTM       0.086367
     19 H3           0.2150    -1.0140     3.1440 hc         1 BTM       0.036589
     20 H3A         -0.7290    -2.0310     2.0470 hc         1 BTM       0.036589
     21 H3B          0.9340    -1.5900     1.6350 hc         1 BTM       0.036589
     22 H4          -1.5720     1.2000    -0.6930 hx         1 BTM       0.086367
     23 H4A         -0.1280     2.0840    -0.1810 hx         1 BTM       0.086367
     24 H5          -0.7290     0.7670    -2.7840 hc         1 BTM       0.036589
     25 H5A          0.2230     2.2190    -2.4460 hc         1 BTM       0.036589
     26 H5B          0.9320     0.6170    -2.1960 hc         1 BTM       0.036589
     27 H6          -0.1280    -2.0840    -0.1840 hx         1 BTM       0.086367
     28 H6A         -0.1280    -1.1980    -1.7150 hx         1 BTM       0.086367
     29 H7          -2.3800    -1.1990    -1.7150 hc         1 BTM       0.036589
     30 H7A         -2.3810    -0.3150    -0.1830 hc         1 BTM       0.036589
     31 H7B         -2.3800    -2.0840    -0.1830 hc         1 BTM       0.036589
     32 H9           2.0210     0.2840     2.6310 ha         1 BTM       0.115000
     33 H10          2.8420     2.2980     3.7940 ha         1 BTM       0.124000
     34 H11          3.2520     4.3720     2.5270 ha         1 BTM       0.124000
     35 H12          2.8470     4.4320     0.0960 ha         1 BTM       0.124000
     36 H13          2.0290     2.4180    -1.0680 ha         1 BTM       0.115000
@<TRIPOS>BOND
     1     1     2 1   
     2     1     3 1   
     3     1     5 1   
     4     1     7 1   
     5     2     9 1   
     6     2    15 1   
     7     2    16 1   
     8     3     4 1   
     9     3    17 1   
    10     3    18 1   
    11     4    19 1   
    12     4    20 1   
    13     4    21 1   
    14     5     6 1   
    15     5    22 1   
    16     5    23 1   
    17     6    24 1   
    18     6    25 1   
    19     6    26 1   
    20     7     8 1   
    21     7    27 1   
    22     7    28 1   
    23     8    29 1   
    24     8    30 1   
    25     8    31 1   
    26     9    10 ar  
    27     9    14 ar  
    28    10    11 ar  
    29    10    32 1   
    30    11    12 ar  
    31    11    33 1   
    32    12    13 ar  
    33    12    34 1   
    34    13    14 ar  
    35    13    35 1   
    36    14    36 1   
@<TRIPOS>SUBSTRUCTURE
     1 BTM         1 TEMP              0 ****  ****    0 ROOT
