@<TRIPOS>MOLECULE
BTN
   31    32     1     0     0
SMALL
bcc


@<TRIPOS>ATOM
      1 C11          0.0000     0.0000     0.0000 c          1 BTN       0.980600
      2 O11          1.2090     0.0000     0.0000 o          1 BTN      -0.905300
      3 O12         -0.6710     0.0000     1.1620 o          1 BTN      -0.905300
      4 C10         -0.7520     0.0080    -1.3060 c3         1 BTN      -0.133400
      5 C9           0.2420     0.0140    -2.4680 c3         1 BTN      -0.015400
      6 C8          -0.5210     0.0210    -3.7940 c3         1 BTN      -0.042400
      7 C7           0.4730     0.0280    -4.9560 c3         1 BTN      -0.023400
      8 C2          -0.2900     0.0350    -6.2810 c3         1 BTN       0.074400
      9 S1          -1.2120    -1.5400    -6.5110 ss         1 BTN      -0.396200
     10 C6          -1.1900    -1.4640    -8.3490 c3         1 BTN       0.069700
     11 C5           0.1750    -0.8140    -8.6460 c3         1 BTN      -0.000300
     12 N1           1.1920    -1.8680    -8.7900 ns         1 BTN      -0.218900
     13 C3           2.1460    -1.6840    -7.8680 c          1 BTN       0.622500
     14 O3           3.1140    -2.4130    -7.7600 o          1 BTN      -0.734500
     15 N2           1.9390    -0.6240    -7.0750 ns         1 BTN      -0.206900
     16 C4           0.6850     0.0350    -7.4740 c3         1 BTN       0.005700
     17 H101        -1.3740     0.8930    -1.3590 hc         1 BTN       0.005200
     18 H102        -1.3750    -0.8760    -1.3690 hc         1 BTN       0.005200
     19 H91          0.8660     0.8970    -2.4060 hc         1 BTN       0.021700
     20 H92          0.8650    -0.8720    -2.4150 hc         1 BTN       0.021700
     21 H81         -1.1440    -0.8620    -3.8570 hc         1 BTN       0.016200
     22 H82         -1.1430     0.9070    -3.8470 hc         1 BTN       0.016200
     23 H71          1.0960     0.9110    -4.8930 hc         1 BTN       0.031200
     24 H72          1.0950    -0.8580    -4.9030 hc         1 BTN       0.031200
     25 H2          -0.9630     0.8820    -6.3390 h1         1 BTN       0.056700
     26 H61         -1.9530    -0.7550    -8.6480 h1         1 BTN       0.060700
     27 H62         -1.1430    -2.4850    -8.7100 h1         1 BTN       0.060700
     28 H5           0.1220    -0.2180    -9.5490 h1         1 BTN       0.029700
     29 HN1          1.1740    -2.6040    -9.4680 hn         1 BTN       0.208500
     30 HN2          2.5400    -0.3280    -6.3320 hn         1 BTN       0.228500
     31 H4           0.8810     1.0490    -7.8020 h1         1 BTN       0.034700
@<TRIPOS>BOND
     1     1     2 1   
     2     1     3 1   
     3     1     4 1   
     4     4     5 1   
     5     4    17 1   
     6     4    18 1   
     7     5     6 1   
     8     5    19 1   
     9     5    20 1   
    10     6     7 1   
    11     6    21 1   
    12     6    22 1   
    13     7     8 1   
    14     7    23 1   
    15     7    24 1   
    16     8     9 1   
    17     8    16 1   
    18     8    25 1   
    19     9    10 1   
    20    10    11 1   
    21    10    26 1   
    22    10    27 1   
    23    11    12 1   
    24    11    16 1   
    25    11    28 1   
    26    12    13 1   
    27    12    29 1   
    28    13    14 2   
    29    13    15 1   
    30    15    16 1   
    31    15    30 1   
    32    16    31 1   
@<TRIPOS>SUBSTRUCTURE
     1 BTN         1 TEMP              0 ****  ****    0 ROOT
