@<TRIPOS>MOLECULE
BTO
   30    31     1     0     0
SMALL
bcc


@<TRIPOS>ATOM
      1 C1          0.2720    0.7160   -0.2570 ca        1 BTO     -0.152000
      2 C2          1.1670   -0.3080   -0.5490 ca        1 BTO     -0.070000
      3 C3          1.7170   -1.0510    0.5100 ca        1 BTO     -0.188200
      4 C4          1.3820   -0.7750    1.8440 ca        1 BTO     -0.032000
      5 C5          0.4750    0.2580    2.1150 ca        1 BTO     -0.105500
      6 C6         -0.0760    1.0020    1.0630 ca        1 BTO     -0.063000
      7 N           2.6690   -2.1490    0.2040 no        1 BTO      0.314200
      8 O           2.9730   -2.3520   -0.9440 o         1 BTO     -0.216000
      9 O1          3.1120   -2.8140    1.1010 o         1 BTO     -0.216000
     10 C7          0.1050    0.5620    3.4950 cc        1 BTO      0.550500
     11 N1          0.8920    0.1920    4.6210 nc        1 BTO     -0.724000
     12 C8          0.2090    0.6660    5.6680 cd        1 BTO      0.567700
     13 C9          0.4800    0.6640    7.1180 c3        1 BTO     -0.159700
     14 C10        -0.7730    0.6410    7.9740 c3        1 BTO     -0.044400
     15 C11        -1.2980    2.0280    8.2640 c3        1 BTO     -0.207400
     16 C12        -0.3430    2.8320    9.1640 c         1 BTO      0.907600
     17 O13         0.8010    3.1360    8.7060 o         1 BTO     -0.845300
     18 O14        -0.7460    3.1610   10.3130 o         1 BTO     -0.845300
     19 O15        -0.9810    1.3080    5.1940 os        1 BTO     -0.119100
     20 N2         -1.0170    1.2290    3.8890 nd        1 BTO     -0.382300
     21 H111       -1.4400    2.5870    7.3040 hc        1 BTO      0.033700
     22 H112       -2.2910    1.9460    8.7740 hc        1 BTO      0.033700
     23 H101       -1.5670    0.0270    7.4720 hc        1 BTO      0.028700
     24 H102       -0.5180    0.1390    8.9450 hc        1 BTO      0.028700
     25 H91         1.0650    1.6110    7.3730 hc        1 BTO      0.119700
     26 H92         1.1310   -0.2200    7.3520 hc        1 BTO      0.119700
     27 H6         -0.7860    1.8190    1.2740 ha        1 BTO      0.164000
     28 H1         -0.1650    1.3060   -1.0770 ha        1 BTO      0.144000
     29 H2          1.4440   -0.5350   -1.5920 ha        1 BTO      0.164000
     30 H4          1.8290   -1.3640    2.6670 ha        1 BTO      0.194000
@<TRIPOS>BOND
     1    1    2 ar
     2    1    6 ar
     3    1   28 1
     4    2    3 ar
     5    2   29 1
     6    3    4 ar
     7    3    7 1
     8    4    5 ar
     9    4   30 1
    10    5    6 ar
    11    5   10 1
    12    6   27 1
    13    7    8 1
    14    7    9 1
    15   10   11 1
    16   10   20 2
    17   11   12 2
    18   12   13 1
    19   12   19 1
    20   13   14 1
    21   13   25 1
    22   13   26 1
    23   14   15 1
    24   14   23 1
    25   14   24 1
    26   15   16 1
    27   15   21 1
    28   15   22 1
    29   16   17 1
    30   16   18 1
    31   19   20 1
@<TRIPOS>SUBSTRUCTURE
     1 BTO         1 TEMP              0 ****  ****    0 ROOT
