@<TRIPOS>MOLECULE
molecule
   24    24     1     0     0
SMALL
bcc


@<TRIPOS>ATOM
      1 C1           0.0000     0.0000     0.0000 c          1 BTP       0.895600
      2 O1          -0.6040     0.9090     0.5150 o          1 BTP      -0.839300
      3 O2          -0.6720    -1.0120    -0.5720 o          1 BTP      -0.839300
      4 C2           1.5070     0.0000     0.0000 c3         1 BTP      -0.154700
      5 C3           2.0160     0.0000     1.4410 c3         1 BTP      -0.027100
      6 C1'          1.6330    -1.2940     2.1100 ca         1 BTP      -0.047300
      7 C2'          2.4450    -2.4050     1.9810 ca         1 BTP      -0.110500
      8 C3'          2.0930    -3.5920     2.5950 ca         1 BTP      -0.137500
      9 C4'          0.9300    -3.6690     3.3390 ca         1 BTP      -0.150000
     10 C5'          0.1200    -2.5580     3.4680 ca         1 BTP      -0.137500
     11 C6'          0.4740    -1.3690     2.8580 ca         1 BTP      -0.110500
     12 C'           2.0170     1.2480    -0.7230 c3         1 BTP       0.089700
     13 S'           3.8220     1.1670    -0.8690 sh         1 BTP      -0.502900
     14 H2           1.8670    -0.8850    -0.5100 hc         1 BTP       0.066700
     15 H31          1.5740     0.8290     1.9810 hc         1 BTP       0.045700
     16 H32          3.0950     0.1020     1.4430 hc         1 BTP       0.045700
     17 H2'          3.3560    -2.3450     1.3990 ha         1 BTP       0.137500
     18 H3'          2.7290    -4.4630     2.4940 ha         1 BTP       0.110500
     19 H4'          0.6530    -4.6000     3.8180 ha         1 BTP       0.106000
     20 H5'         -0.7910    -2.6160     4.0520 ha         1 BTP       0.110500
     21 H6'         -0.1620    -0.4980     2.9590 ha         1 BTP       0.137500
     22 H'1          1.5760     1.2980    -1.7110 h1         1 BTP       0.060200
     23 H'2          1.7390     2.1300    -0.1590 h1         1 BTP       0.060200
     24 HS'          4.2300     2.0350    -1.7870 hs         1 BTP       0.190800
@<TRIPOS>BOND
     1     1     2 1
     2     1     3 1
     3     1     4 1
     4     4     5 1
     5     4    12 1
     6     4    14 1
     7     5     6 1
     8     5    15 1
     9     5    16 1
    10     6     7 ar
    11     6    11 ar
    12     7     8 ar
    13     7    17 1
    14     8     9 ar
    15     8    18 1
    16     9    10 ar
    17     9    19 1
    18    10    11 ar
    19    10    20 1
    20    11    21 1
    21    12    13 1
    22    12    22 1
    23    12    23 1
    24    13    24 1
@<TRIPOS>SUBSTRUCTURE
     1 BTP         1 TEMP              0 ****  ****    0 ROOT
