@<TRIPOS>MOLECULE
BTP
   24    24     1     0     0
SMALL
bcc


@<TRIPOS>ATOM
      1 C1         -0.2020    0.7040    0.1150 c         1 BTP      0.916600
      2 O1         -0.7230    0.9620    1.2350 o         1 BTP     -0.835800
      3 O2         -0.7750    0.8920   -0.9940 o         1 BTP     -0.835800
      4 C2          1.2400    0.1050    0.0700 c3        1 BTP     -0.182700
      5 C3          1.8900    0.0380    1.4440 c3        1 BTP     -0.032100
      6 C1'         1.6610   -1.2630    2.1320 ca        1 BTP     -0.047300
      7 C2'         2.7180   -2.1480    2.3710 ca        1 BTP     -0.129500
      8 C3'         2.4930   -3.3510    3.0410 ca        1 BTP     -0.148000
      9 C4'         1.2120   -3.6810    3.4760 ca        1 BTP     -0.158000
     10 C5'         0.1520   -2.8040    3.2370 ca        1 BTP     -0.148000
     11 C6'         0.3710   -1.6020    2.5700 ca        1 BTP     -0.129500
     12 C'          2.0510    0.9470   -0.8820 c3        1 BTP      0.065700
     13 S'          3.5930    0.1270   -1.2890 sh        1 BTP     -0.467900
     14 H2          1.1340   -0.9310   -0.3510 hc        1 BTP      0.061700
     15 H31         1.4540    0.8600    2.0800 hc        1 BTP      0.052200
     16 H32         2.9950    0.2190    1.3480 hc        1 BTP      0.052200
     17 H2'         3.7300   -1.8960    2.0230 ha        1 BTP      0.160000
     18 H3'         3.3300   -4.0400    3.2220 ha        1 BTP      0.111500
     19 H4'         1.0350   -4.6280    4.0020 ha        1 BTP      0.106000
     20 H5'        -0.8620   -3.0630    3.5740 ha        1 BTP      0.111500
     21 H6'        -0.4550   -0.8920    2.3610 ha        1 BTP      0.160000
     22 H'1         1.4560    1.1100   -1.8140 h1        1 BTP      0.067200
     23 H'2         2.2890    1.9370   -0.4270 h1        1 BTP      0.067200
     24 HS'         3.9010    0.8080   -2.3750 hs        1 BTP      0.180800
@<TRIPOS>BOND
     1    1    2 1   
     2    1    3 1   
     3    1    4 1   
     4    4    5 1   
     5    4   12 1   
     6    4   14 1   
     7    5    6 1   
     8    5   15 1   
     9    5   16 1   
    10    6    7 ar  
    11    6   11 ar  
    12    7    8 ar  
    13    7   17 1   
    14    8    9 ar  
    15    8   18 1   
    16    9   10 ar  
    17    9   19 1   
    18   10   11 ar  
    19   10   20 1   
    20   11   21 1   
    21   12   13 1   
    22   12   22 1   
    23   12   23 1   
    24   13   24 1   
@<TRIPOS>SUBSTRUCTURE
     1 BTP         1 TEMP              0 ****  ****    0 ROOT
