@<TRIPOS>MOLECULE
BTQ
   31    32     1     0     0
SMALL
bcc


@<TRIPOS>ATOM
      1 C11          0.0000     0.0000     0.0000 c          1 BTQ       0.980600
      2 O11          1.2080     0.0000     0.0000 o          1 BTQ      -0.905300
      3 O12         -0.6710     0.0000     1.1630 o          1 BTQ      -0.905300
      4 C10         -0.7540    -0.0020    -1.3050 c3         1 BTQ      -0.134400
      5 C9           0.2400    -0.0010    -2.4680 c3         1 BTQ      -0.014400
      6 C8          -0.5250    -0.0020    -3.7930 c3         1 BTQ      -0.045400
      7 C7           0.4690    -0.0020    -4.9560 c3         1 BTQ      -0.010400
      8 C2          -0.2960    -0.0040    -6.2810 c3         1 BTQ       0.079400
      9 S1          -1.1470     1.6110    -6.5560 ss         1 BTQ      -0.409200
     10 C6          -1.0760     1.6040    -8.4000 c3         1 BTQ       0.075700
     11 C5           0.2430     0.8430    -8.6520 c3         1 BTQ      -0.001300
     12 N1           0.0490    -0.1020    -9.7640 ns         1 BTQ      -0.226900
     13 C3           0.3170    -1.3430    -9.3340 c          1 BTQ       0.616500
     14 O3           0.2370    -2.3230   -10.0490 o          1 BTQ      -0.741500
     15 N2           0.6810    -1.4030    -8.0470 ns         1 BTQ      -0.210900
     16 C4           0.6740    -0.0470    -7.4810 c3         1 BTQ      -0.001300
     17 H101        -1.3780     0.8810    -1.3630 hc         1 BTQ       0.005700
     18 H102        -1.3750    -0.8880    -1.3620 hc         1 BTQ       0.005700
     19 H91          0.8650    -0.8840    -2.4110 hc         1 BTQ       0.020700
     20 H92          0.8620     0.8850    -2.4110 hc         1 BTQ       0.020700
     21 H81         -1.1480     0.8820    -3.8510 hc         1 BTQ       0.016200
     22 H82         -1.1470    -0.8870    -3.8500 hc         1 BTQ       0.016200
     23 H71          1.0930    -0.8860    -4.8990 hc         1 BTQ       0.026700
     24 H72          1.0920     0.8830    -4.9000 hc         1 BTQ       0.026700
     25 H2          -1.0020    -0.8230    -6.3290 h1         1 BTQ       0.065700
     26 H61         -0.9250     2.6280    -8.7210 h1         1 BTQ       0.063200
     27 H62         -1.8850     0.9740    -8.7510 h1         1 BTQ       0.063200
     28 H5           1.0330     1.5420    -8.8960 h1         1 BTQ       0.040700
     29 HN1         -0.2370     0.1430   -10.6910 hn         1 BTQ       0.210500
     30 HN2          0.9190    -2.2390    -7.5490 hn         1 BTQ       0.218500
     31 H4           1.6730     0.2240    -7.1600 h1         1 BTQ       0.053700
@<TRIPOS>BOND
     1     1     2 1   
     2     1     3 1   
     3     1     4 1   
     4     4     5 1   
     5     4    17 1   
     6     4    18 1   
     7     5     6 1   
     8     5    19 1   
     9     5    20 1   
    10     6     7 1   
    11     6    21 1   
    12     6    22 1   
    13     7     8 1   
    14     7    23 1   
    15     7    24 1   
    16     8     9 1   
    17     8    16 1   
    18     8    25 1   
    19     9    10 1   
    20    10    11 1   
    21    10    26 1   
    22    10    27 1   
    23    11    12 1   
    24    11    16 1   
    25    11    28 1   
    26    12    13 1   
    27    12    29 1   
    28    13    14 2   
    29    13    15 1   
    30    15    16 1   
    31    15    30 1   
    32    16    31 1   
@<TRIPOS>SUBSTRUCTURE
     1 BTQ         1 TEMP              0 ****  ****    0 ROOT
