@<TRIPOS>MOLECULE
molecule
   27    28     1     0     0
SMALL
bcc


@<TRIPOS>ATOM
      1 C5           0.0000     0.0000     0.0000 ca         1 BTS      -0.133000
      2 C4           1.3700     0.0000     0.0000 ca         1 BTS      -0.079000
      3 C6          -0.7240     0.0000     1.1830 ca         1 BTS      -0.133000
      4 N3           3.4330     0.0050     1.3870 nc         1 BTS      -0.638100
      5 C2           3.9910    -0.0000     2.5760 cd         1 BTS       0.501100
      6 S1           2.5710    -0.0000     3.6630 ss         1 BTS      -0.194100
      7 C7A          1.3220     0.0000     2.3990 ca         1 BTS      -0.031100
      8 C3A          2.0930     0.0000     1.2150 ca         1 BTS       0.138400
      9 C7          -0.0480     0.0000     2.3900 ca         1 BTS      -0.082000
     10 S2           5.7030     0.0000     2.9950 ss         1 BTS      -0.152300
     11 C1           6.4310     0.0000     1.3380 c3         1 BTS       0.009700
     12 C8           7.9560     0.0000     1.4520 c3         1 BTS      -0.051400
     13 C9           8.5720     0.0000     0.0520 c3         1 BTS      -0.249600
     14 S3          10.3810     0.0000     0.1870 s6         1 BTS       1.244800
     15 O2          10.8700    -1.2430     0.6700 o          1 BTS      -0.701200
     16 O3          10.8700     1.2430     0.6700 o          1 BTS      -0.701200
     17 O4          10.8380     0.0000    -1.2650 o          1 BTS      -0.701200
     18 H5          -0.5290    -0.0000    -0.9450 ha         1 BTS       0.128000
     19 H4           1.9060    -0.0000    -0.9420 ha         1 BTS       0.145000
     20 H6          -1.8070     0.0000     1.1620 ha         1 BTS       0.129000
     21 H7          -0.5990    -0.0000     3.3230 ha         1 BTS       0.131000
     22 H11          6.1080    -0.8850     0.8020 h1         1 BTS       0.077700
     23 H12          6.1080     0.8850     0.8020 h1         1 BTS       0.077700
     24 H81          8.2780    -0.8850     1.9880 hc         1 BTS       0.052700
     25 H82          8.2780     0.8850     1.9880 hc         1 BTS       0.052700
     26 H91          8.2500     0.8850    -0.4840 h1         1 BTS       0.078700
     27 H92          8.2500    -0.8850    -0.4840 h1         1 BTS       0.078700
@<TRIPOS>BOND
     1     1     2 ar
     2     1     3 ar
     3     1    18 1
     4     2     8 ar
     5     2    19 1
     6     3     9 ar
     7     3    20 1
     8     4     5 2
     9     4     8 1
    10     5     6 1
    11     5    10 1
    12     6     7 1
    13     7     8 ar
    14     7     9 ar
    15     9    21 1
    16    10    11 1
    17    11    12 1
    18    11    22 1
    19    11    23 1
    20    12    13 1
    21    12    24 1
    22    12    25 1
    23    13    14 1
    24    13    26 1
    25    13    27 1
    26    14    15 1
    27    14    16 1
    28    14    17 1
@<TRIPOS>SUBSTRUCTURE
     1 BTS         1 TEMP              0 ****  ****    0 ROOT
