@<TRIPOS>MOLECULE
molecule
   16    16     1     0     0
SMALL
bcc


@<TRIPOS>ATOM
      1 C1           0.0000     0.0000     0.0000 ca         1 BTT       0.095850
      2 C2           1.3900     0.0000     0.0000 ca         1 BTT       0.095850
      3 C3           2.0820     0.0000     1.2000 ca         1 BTT      -0.178500
      4 C4           1.3890    -0.0090     2.3990 ca         1 BTT       0.095850
      5 C5           0.0000    -0.0150     2.3990 ca         1 BTT       0.095850
      6 C6          -0.6930    -0.0110     1.2000 ca         1 BTT      -0.178500
      7 O1          -0.6800     0.0040    -1.1780 oh         1 BTT      -0.508350
      8 O2           2.0700     0.0090    -1.1780 oh         1 BTT      -0.508350
      9 O4           2.0700    -0.0130     3.5780 oh         1 BTT      -0.508350
     10 O5          -0.6810    -0.0250     3.5780 oh         1 BTT      -0.508350
     11 H3           3.1660     0.0020     1.2010 ha         1 BTT       0.155000
     12 H6          -1.7760    -0.0130     1.2000 ha         1 BTT       0.155000
     13 HO1         -1.0320    -0.8560    -1.3410 ho         1 BTT       0.425000
     14 HO2          2.4220     0.8700    -1.3310 ho         1 BTT       0.425000
     15 HO4          2.4270    -0.8710     3.7320 ho         1 BTT       0.425000
     16 HO5         -1.0370     0.8320     3.7420 ho         1 BTT       0.425000
@<TRIPOS>BOND
     1     1     2 ar
     2     1     6 ar
     3     1     7 1
     4     2     3 ar
     5     2     8 1
     6     3     4 ar
     7     3    11 1
     8     4     5 ar
     9     4     9 1
    10     5     6 ar
    11     5    10 1
    12     6    12 1
    13     7    13 1
    14     8    14 1
    15     9    15 1
    16    10    16 1
@<TRIPOS>SUBSTRUCTURE
     1 BTT         1 TEMP              0 ****  ****    0 ROOT
