@<TRIPOS>MOLECULE
BTT
   16    16     1     0     0
SMALL
bcc


@<TRIPOS>ATOM
      1 C1         -0.0140   -0.1120   -0.0050 ca        1 BTT      0.105100
      2 C2          1.3990   -0.1030   -0.0080 ca        1 BTT      0.105100
      3 C3          2.1010    0.0030    1.1970 ca        1 BTT     -0.239000
      4 C4          1.4030    0.1000    2.4050 ca        1 BTT      0.105100
      5 C5         -0.0100    0.0910    2.4080 ca        1 BTT      0.105100
      6 C6         -0.7120   -0.0150    1.2030 ca        1 BTT     -0.239000
      7 O1         -0.6420   -0.2190   -1.2240 oh        1 BTT     -0.471100
      8 O2          2.0230   -0.2020   -1.2290 oh        1 BTT     -0.471100
      9 O4          2.0310    0.2070    3.6230 oh        1 BTT     -0.471100
     10 O5         -0.6340    0.1900    3.6290 oh        1 BTT     -0.471100
     11 H3          3.2000    0.0100    1.1940 ha        1 BTT      0.141000
     12 H6         -1.8110   -0.0220    1.2060 ha        1 BTT      0.141000
     13 HO1        -1.5970   -0.2120   -1.0620 ho        1 BTT      0.415000
     14 HO2         2.9790   -0.1820   -1.0720 ho        1 BTT      0.415000
     15 HO4         2.9860    0.2000    3.4620 ho        1 BTT      0.415000
     16 HO5        -1.5890    0.1700    3.4720 ho        1 BTT      0.415000
@<TRIPOS>BOND
     1    1    2 ar  
     2    1    6 ar  
     3    1    7 1   
     4    2    3 ar  
     5    2    8 1   
     6    3    4 ar  
     7    3   11 1   
     8    4    5 ar  
     9    4    9 1   
    10    5    6 ar  
    11    5   10 1   
    12    6   12 1   
    13    7   13 1   
    14    8   14 1   
    15    9   15 1   
    16   10   16 1   
@<TRIPOS>SUBSTRUCTURE
     1 BTT         1 TEMP              0 ****  ****    0 ROOT
