@<TRIPOS>MOLECULE
molecule
   45    46     1     0     0
SMALL
bcc


@<TRIPOS>ATOM
      1 C1           0.0000     0.0000     0.0000 c3         1 BTU       0.306900
      2 O1          -0.4770    -1.1930     0.6240 os         1 BTU      -0.392600
      3 C2           1.5320     0.0000     0.0000 c3         1 BTU       0.122100
      4 O2           2.0090    -1.1680    -0.6720 oh         1 BTU      -0.582800
      5 C3           2.0330     0.0000     1.4480 c3         1 BTU       0.129100
      6 O3           3.4610     0.0740     1.4580 oh         1 BTU      -0.607800
      7 C4           1.4520     1.2140     2.1780 c3         1 BTU       0.111100
      8 O4           1.8560     1.1860     3.5480 oh         1 BTU      -0.596800
      9 C5          -0.0760     1.1680     2.0930 c3         1 BTU       0.137100
     10 O5          -0.4750     1.1390     0.7210 os         1 BTU      -0.423600
     11 C6          -0.6620     2.4090     2.7680 c3         1 BTU       0.149400
     12 O6          -2.0870     2.3100     2.7930 oh         1 BTU      -0.606800
     13 OAG         -2.3720    -1.4220    -1.9330 oh         1 BTU      -0.595800
     14 OAH         -1.3520    -3.0340     2.2050 oh         1 BTU      -0.584800
     15 CAK         -3.1120    -1.4350     2.6740 c3         1 BTU       0.127400
     16 OAN         -3.3730    -3.2030     1.0340 os         1 BTU      -0.403600
     17 CAR         -2.1860    -2.2530    -0.7860 c3         1 BTU       0.080100
     18 CAT         -3.5140    -2.9360    -0.3700 c3         1 BTU       0.124100
     19 CAV         -1.8830    -1.4040     0.4780 c3         1 BTU       0.118100
     20 CAW         -2.4260    -2.2990     1.6130 c3         1 BTU       0.349600
     21 H1          -0.3590     0.0470    -1.0210 h2         1 BTU       0.085700
     22 H2           1.8920     0.8870    -0.5060 h1         1 BTU       0.059700
     23 HO2          2.2820    -0.9390    -1.5450 ho         1 BTU       0.403000
     24 H3           1.7080    -0.9070     1.9420 h1         1 BTU       0.086700
     25 HO3          3.8120    -0.6950     1.8780 ho         1 BTU       0.417000
     26 H4           1.8110     2.1220     1.7090 h1         1 BTU       0.048700
     27 HO4          2.4790     1.8760     3.7060 ho         1 BTU       0.411000
     28 H5          -0.4370     0.2760     2.5910 h1         1 BTU       0.082700
     29 H6          -0.2870     2.4790     3.7820 h1         1 BTU       0.035200
     30 H6A         -0.3710     3.2930     2.2140 h1         1 BTU       0.035200
     31 HO6         -2.4470     3.0600     3.2370 ho         1 BTU       0.404000
     32 HOAB        -5.1280    -5.5690    -1.3430 ho         1 BTU       0.401000
     33 HOAC        -4.0740    -1.7470     4.3500 ho         1 BTU       0.404000
     34 HOAG        -1.9470    -1.8140    -2.6780 ho         1 BTU       0.407000
     35 HAK         -2.3970    -0.7350     3.0880 h1         1 BTU       0.041700
     36 HAKA        -3.9320    -0.8900     2.2210 h1         1 BTU       0.041700
     37 HAR         -1.4080    -2.9900    -0.9520 h1         1 BTU       0.073700
     38 HAT         -4.3480    -2.2670    -0.5420 h1         1 BTU       0.079700
     39 HAV         -2.4190    -0.4630     0.4440 h1         1 BTU       0.090700
     40 HOAH        -1.6620    -3.8840     2.4710 ho         1 BTU       0.426000
     41 OAC         -3.6160    -2.2740     3.7160 oh         1 BTU      -0.600800
     42 CAJ         -3.7040    -4.2430    -1.1430 c3         1 BTU       0.143400
     43 HAJ         -2.9000    -4.9270    -0.8990 h1         1 BTU       0.028200
     44 OAB         -4.9550    -4.8310    -0.7830 oh         1 BTU      -0.593800
     45 HAJA        -3.6940    -4.0380    -2.2070 h1         1 BTU       0.028200
@<TRIPOS>BOND
     1     2     1 1
     2     1     3 1
     3     1    10 1
     4     1    21 1
     5     2    19 1
     6     5     3 1
     7     4     3 1
     8     3    22 1
     9     4    23 1
    10     5     7 1
    11     5     6 1
    12     5    24 1
    13     6    25 1
    14     8     7 1
    15     9     7 1
    16     7    26 1
    17     8    27 1
    18     9    11 1
    19     9    10 1
    20     9    28 1
    21    11    12 1
    22    11    29 1
    23    11    30 1
    24    12    31 1
    25    44    42 1
    26    44    32 1
    27    41    15 1
    28    41    33 1
    29    17    13 1
    30    13    34 1
    31    14    20 1
    32    14    40 1
    33    42    18 1
    34    42    43 1
    35    42    45 1
    36    20    15 1
    37    15    35 1
    38    15    36 1
    39    16    18 1
    40    16    20 1
    41    18    17 1
    42    17    19 1
    43    17    37 1
    44    18    38 1
    45    20    19 1
    46    19    39 1
@<TRIPOS>SUBSTRUCTURE
     1 BTU         1 TEMP              0 ****  ****    0 ROOT
