@<TRIPOS>MOLECULE
BTU
   45    42     1     0     0
SMALL
bcc


@<TRIPOS>ATOM
      1 C1          1.7450    0.6960   -0.0470 c1        1 BTU     -0.067000
      2 O1         -1.5390   -0.8570    1.4450 oh        1 BTU     -0.335000
      3 C2          1.5680   -0.7690    0.1260 c3        1 BTU     -0.119000
      4 O2          2.4150   -1.4670   -0.7700 oh        1 BTU     -0.318000
      5 C3          3.9420    1.4700    0.4770 c1        1 BTU     -0.068000
      6 O3          4.2570    0.2300    0.6150 oh        1 BTU     -0.150000
      7 C4          1.5040    1.8530    3.1360 c1        1 BTU      0.011000
      8 O4          2.7440    2.1140    2.9630 oh        1 BTU     -0.181000
      9 C5          0.6390    1.3590    2.0080 c3        1 BTU     -0.234000
     10 O5          1.2890    1.6060    0.7230 os        1 BTU     -0.084000
     11 C6         -0.6900    2.1160    2.0010 c3        1 BTU      0.009000
     12 O6         -1.5230    1.6460    3.0410 oh        1 BTU     -0.345000
     13 OAG        -1.4510   -1.2920   -1.0730 oh        1 BTU     -0.311000
     14 OAH        -2.3210   -2.4040    3.2690 oh        1 BTU     -0.361000
     15 CAK        -4.5550   -2.5000    2.4990 c3        1 BTU     -0.037000
     16 OAN        -2.7300   -3.9010    1.6650 oh        1 BTU     -0.361000
     17 CAR        -2.2800   -2.1940   -0.3580 c3        1 BTU      0.000000
     18 CAT        -3.5050   -2.4700   -1.1270 c1        1 BTU     -0.111000
     19 CAV        -2.6810   -1.5680    1.0030 c3        1 BTU      0.006000
     20 CAW        -3.0710   -2.6010    2.0880 c3        1 BTU      0.122000
     21 H1         -1.8210   -0.3040    2.1930 ho        1 BTU      0.241000
     22 H2          0.4850   -1.0540   -0.0360 h1        1 BTU      0.135500
     23 HO2         2.1330   -1.2340   -1.6640 ho        1 BTU      0.210000
     24 H3          1.8960   -1.1250    1.1450 h1        1 BTU      0.135500
     25 HO3         4.5140   -0.2540   -0.2000 ho        1 BTU      0.189000
     26 H4          4.0500    1.9650   -0.5070 ha        1 BTU      0.058000
     27 HO4         3.1500    1.9780    2.0380 ho        1 BTU      0.260000
     28 H5          0.4430    0.2600    2.1510 h1        1 BTU      0.136000
     29 H6         -1.2540    1.9000    1.0540 h1        1 BTU      0.099000
     30 H6A        -0.5140    3.2180    2.1010 h1        1 BTU      0.099000
     31 HO6        -1.0490    1.7900    3.8720 ho        1 BTU      0.229000
     32 HOAB       -5.5000   -3.0720   -2.2960 ho        1 BTU      0.218000
     33 HOAC       -4.3460   -3.2880    4.2490 ho        1 BTU      0.221000
     34 HOAG       -2.0000   -0.5460   -1.3490 ho        1 BTU      0.215000
     35 HAK        -5.2090   -2.7260    1.6160 h1        1 BTU      0.111000
     36 HAKA       -4.7670   -1.4770    2.9030 h1        1 BTU      0.111000
     37 HAR        -1.6090   -3.0860   -0.1800 h1        1 BTU      0.145000
     38 HAT        -3.1120   -4.5220    2.3050 ho        1 BTU      0.236500
     39 HAV        -3.5410   -0.8560    0.8550 h1        1 BTU      0.102000
     40 HOAH       -1.3840   -2.4970    3.0440 ho        1 BTU      0.236500
     41 OAC        -4.8480   -3.4990    3.4490 oh        1 BTU     -0.322000
     42 CAJ        -4.1480   -3.7660   -1.0850 c3        1 BTU     -0.079000
     43 HAJ        -4.2630   -4.1930   -0.0430 h1        1 BTU      0.136000
     44 OAB        -5.4530   -3.7750   -1.6340 oh        1 BTU     -0.322000
     45 HAJA       -3.4970   -4.4810   -1.6810 h1        1 BTU      0.136000
@<TRIPOS>BOND
     1    1    3 1   
     2    1   10 1   
     3    2   19 1   
     4    2   21 1   
     5    3    4 1   
     6    3   22 1   
     7    3   24 1   
     8    4   23 1   
     9    5    6 1   
    10    5   26 1   
    11    6   25 1   
    12    7    8 1   
    13    7    9 1   
    14    8   27 1   
    15    9   10 1   
    16    9   11 1   
    17    9   28 1   
    18   11   12 1   
    19   11   29 1   
    20   11   30 1   
    21   12   31 1   
    22   13   17 1   
    23   13   34 1   
    24   14   20 1   
    25   14   40 1   
    26   15   20 1   
    27   15   35 1   
    28   15   36 1   
    29   15   41 1   
    30   16   20 1   
    31   16   38 1   
    32   17   18 1   
    33   17   19 1   
    34   17   37 1   
    35   18   42 1   
    36   19   20 1   
    37   19   39 1   
    38   32   44 1   
    39   33   41 1   
    40   42   43 1   
    41   42   44 1   
    42   42   45 1   
@<TRIPOS>SUBSTRUCTURE
     1 BTU         1 TEMP              0 ****  ****    0 ROOT
