@<TRIPOS>MOLECULE
molecule
   53    56     1     0     0
SMALL
bcc


@<TRIPOS>ATOM
      1 C16          0.0000     0.0000     0.0000 ca         1 BTV      -0.128000
      2 C19         -0.7280    -0.0030     3.6840 c          1 BTV       0.879200
      3 C22          1.4030    -0.0000     2.3950 ca         1 BTV      -0.105500
      4 N25          2.0260     3.3950    -2.2610 nc         1 BTV      -0.382000
      5 C02          8.4870     8.8880    -8.4230 c          1 BTV       0.820500
      6 C04          6.2470     9.2270    -8.0850 c3         1 BTV       0.090700
      7 C05          5.2880     8.0850    -7.6910 c3         1 BTV       0.030400
      8 C06          5.6750     7.4960    -6.3340 c3         1 BTV      -0.067400
      9 C07          4.6360     6.4550    -5.9140 c3         1 BTV      -0.082400
     10 C08          5.0230     5.8660    -4.5560 c3         1 BTV      -0.084400
     11 C09          3.9830     4.8250    -4.1360 c3         1 BTV      -0.077400
     12 C11          3.3460     3.2100    -2.3650 cc         1 BTV       0.263600
     13 C12          3.5820     1.9210    -2.0260 cd         1 BTV      -0.300600
     14 C14          2.1340     0.0020    -1.3080 c3         1 BTV       0.111600
     15 C15          1.3840     0.0000     0.0000 ca         1 BTV      -0.161300
     16 C17         -0.6910    -0.0010     1.1930 ca         1 BTV      -0.105500
     17 C18          0.0070    -0.0010     2.4020 ca         1 BTV      -0.079600
     18 C23          2.0830     0.0000     1.1940 ca         1 BTV      -0.128000
     19 C27          5.8200     8.1150   -10.3460 c3         1 BTV       0.010700
     20 C28          6.5480     9.2420    -9.5890 c3         1 BTV       0.082700
     21 N03          7.5590     8.9930    -7.4620 ns         1 BTV      -0.593900
     22 N13          2.3760     1.3840    -1.7300 na         1 BTV       0.145400
     23 N24          1.4790     2.2930    -1.8820 nd         1 BTV      -0.179800
     24 N29          8.0000     9.0180    -9.6640 ns         1 BTV      -0.598900
     25 O20         -0.1170    -0.0030     4.7340 o          1 BTV      -0.832300
     26 O21         -2.0750    -0.0030     3.6880 o          1 BTV      -0.832300
     27 S26          5.5500     6.8550    -9.0340 ss         1 BTV      -0.354200
     28 H1          -0.5410    -0.0000    -0.9390 ha         1 BTV       0.109500
     29 H2           1.9510    -0.0000     3.3290 ha         1 BTV       0.154500
     30 H5           4.2620     8.4330    -7.6880 h1         1 BTV       0.079700
     31 H6           6.6480     7.0250    -6.4090 hc         1 BTV       0.056200
     32 H7           5.7130     8.2870    -5.5950 hc         1 BTV       0.056200
     33 H8           3.6630     6.9250    -5.8400 hc         1 BTV       0.051200
     34 H9           4.5990     5.6630    -6.6530 hc         1 BTV       0.051200
     35 H10          5.0600     6.6570    -3.8170 hc         1 BTV       0.039200
     36 H11          5.9950     5.3960    -4.6300 hc         1 BTV       0.039200
     37 H12          3.0100     5.2950    -4.0620 hc         1 BTV       0.053700
     38 H13          3.9460     4.0340    -4.8750 hc         1 BTV       0.053700
     39 H16          4.5430     1.4210    -1.9980 h4         1 BTV       0.172000
     40 H17          1.5470    -0.5080    -2.0610 h1         1 BTV       0.060700
     41 H18          3.0810    -0.5080    -1.1810 h1         1 BTV       0.060700
     42 H19         -1.7750    -0.0010     1.1930 ha         1 BTV       0.154500
     43 H20          3.1670     0.0000     1.1860 ha         1 BTV       0.109500
     44 H21          4.8460     8.4960   -10.6270 h1         1 BTV       0.088700
     45 H22          6.5270     7.6940   -11.0500 h1         1 BTV       0.088700
     46 H23          6.2940    10.2060   -10.0130 h1         1 BTV       0.063700
     47 H25          7.7310     8.9240    -6.4790 hn         1 BTV       0.365500
     48 H26          8.5370     8.9700   -10.5070 hn         1 BTV       0.359500
     49 O01          9.6650     8.6990    -8.1890 o          1 BTV      -0.684500
     50 C10          4.3700     4.2360    -2.7780 c3         1 BTV      -0.084700
     51 H3           5.8460    10.1830    -7.7710 h1         1 BTV       0.067700
     52 H14          4.4060     5.0280    -2.0390 hc         1 BTV       0.046700
     53 H15          5.3430     3.7660    -2.8530 hc         1 BTV       0.046700
@<TRIPOS>BOND
     1     1    15 ar
     2     1    16 ar
     3     2    17 1
     4     2    25 1
     5     2    26 1
     6     3    17 ar
     7     3    18 ar
     8     4    12 1
     9     4    23 2
    10     5    21 1
    11     5    24 1
    12     5    49 2
    13     6     7 1
    14     6    21 1
    15     7     8 1
    16     7    27 1
    17     8     9 1
    18     9    10 1
    19    10    11 1
    20    11    50 1
    21    50    12 1
    22    12    13 2
    23    13    22 1
    24    14    15 1
    25    14    22 1
    26    15    18 ar
    27    16    17 ar
    28    19    20 1
    29    19    27 1
    30    20    24 1
    31    22    23 1
    32     1    28 1
    33     3    29 1
    34     6    51 1
    35     7    30 1
    36     8    31 1
    37     8    32 1
    38     9    33 1
    39     9    34 1
    40    10    35 1
    41    10    36 1
    42    11    37 1
    43    11    38 1
    44    50    52 1
    45    50    53 1
    46    13    39 1
    47    14    40 1
    48    14    41 1
    49    16    42 1
    50    18    43 1
    51    19    44 1
    52    19    45 1
    53    20    46 1
    54    21    47 1
    55    24    48 1
    56    20     6 1
@<TRIPOS>SUBSTRUCTURE
     1 BTV         1 TEMP              0 ****  ****    0 ROOT
