@<TRIPOS>MOLECULE
BTV
   53    56     1     0     0
SMALL
bcc


@<TRIPOS>ATOM
      1 C16          0.0000     0.0000     0.0000 ca         1 BTV      -0.107000
      2 C19         -0.7280    -0.0030     3.6840 c          1 BTV       0.970200
      3 C22          1.4030    -0.0000     2.3950 ca         1 BTV      -0.075500
      4 N25          2.0260     3.3950    -2.2610 nc         1 BTV      -0.336000
      5 C02          8.4870     8.8880    -8.4230 c          1 BTV       0.623500
      6 C04          6.2470     9.2270    -8.0850 c3         1 BTV       0.008700
      7 C05          5.2880     8.0850    -7.6910 c3         1 BTV       0.068400
      8 C06          5.6750     7.4960    -6.3340 c3         1 BTV      -0.020400
      9 C07          4.6360     6.4550    -5.9140 c3         1 BTV      -0.033400
     10 C08          5.0230     5.8660    -4.5560 c3         1 BTV      -0.029400
     11 C09          3.9830     4.8250    -4.1360 c3         1 BTV      -0.030400
     12 C11          3.3460     3.2100    -2.3650 cc         1 BTV       0.254600
     13 C12          3.5820     1.9210    -2.0260 cd         1 BTV      -0.466600
     14 C14          2.1340     0.0020    -1.3080 c3         1 BTV       0.037600
     15 C15          1.3840     0.0000     0.0000 ca         1 BTV      -0.182300
     16 C17         -0.6910    -0.0010     1.1930 ca         1 BTV      -0.075500
     17 C18          0.0070    -0.0010     2.4020 ca         1 BTV      -0.079600
     18 C23          2.0830     0.0000     1.1940 ca         1 BTV      -0.107000
     19 C27          5.8200     8.1150   -10.3460 c3         1 BTV       0.083700
     20 C28          6.5480     9.2420    -9.5890 c3         1 BTV      -0.001300
     21 N03          7.5590     8.9930    -7.4620 ns         1 BTV      -0.213900
     22 N13          2.3760     1.3840    -1.7300 na         1 BTV       0.616400
     23 N24          1.4790     2.2930    -1.8820 nd         1 BTV      -0.351800
     24 N29          8.0000     9.0180    -9.6640 ns         1 BTV      -0.214900
     25 O20         -0.1170    -0.0030     4.7340 o          1 BTV      -0.880300
     26 O21         -2.0750    -0.0030     3.6880 o          1 BTV      -0.880300
     27 S26          5.5500     6.8550    -9.0340 ss         1 BTV      -0.404200
     28 H1          -0.5410    -0.0000    -0.9390 ha         1 BTV       0.088500
     29 H2           1.9510    -0.0000     3.3290 ha         1 BTV       0.128000
     30 H5           4.2620     8.4330    -7.6880 h1         1 BTV       0.061700
     31 H6           6.6480     7.0250    -6.4090 hc         1 BTV       0.030700
     32 H7           5.7130     8.2870    -5.5950 hc         1 BTV       0.030700
     33 H8           3.6630     6.9250    -5.8400 hc         1 BTV       0.026200
     34 H9           4.5990     5.6630    -6.6530 hc         1 BTV       0.026200
     35 H10          5.0600     6.6570    -3.8170 hc         1 BTV       0.013200
     36 H11          5.9950     5.3960    -4.6300 hc         1 BTV       0.013200
     37 H12          3.0100     5.2950    -4.0620 hc         1 BTV       0.025700
     38 H13          3.9460     4.0340    -4.8750 hc         1 BTV       0.025700
     39 H16          4.5430     1.4210    -1.9980 h4         1 BTV       0.155000
     40 H17          1.5470    -0.5080    -2.0610 h1         1 BTV       0.030700
     41 H18          3.0810    -0.5080    -1.1810 h1         1 BTV       0.030700
     42 H19         -1.7750    -0.0010     1.1930 ha         1 BTV       0.128000
     43 H20          3.1670     0.0000     1.1860 ha         1 BTV       0.088500
     44 H21          4.8460     8.4960   -10.6270 h1         1 BTV       0.064200
     45 H22          6.5270     7.6940   -11.0500 h1         1 BTV       0.064200
     46 H23          6.2940    10.2060   -10.0130 h1         1 BTV       0.036700
     47 H25          7.7310     8.9240    -6.4790 hn         1 BTV       0.222500
     48 H26          8.5370     8.9700   -10.5070 hn         1 BTV       0.212500
     49 O01          9.6650     8.6990    -8.1890 o          1 BTV      -0.729500
     50 C10          4.3700     4.2360    -2.7780 c3         1 BTV      -0.016700
     51 H3           5.8460    10.1830    -7.7710 h1         1 BTV       0.039700
     52 H14          4.4060     5.0280    -2.0390 hc         1 BTV       0.014200
     53 H15          5.3430     3.7660    -2.8530 hc         1 BTV       0.014200
@<TRIPOS>BOND
     1     1    15 ar  
     2     1    16 ar  
     3     1    28 1   
     4     2    17 1   
     5     2    25 1   
     6     2    26 1   
     7     3    17 ar  
     8     3    18 ar  
     9     3    29 1   
    10     4    12 1   
    11     4    23 2   
    12     5    21 1   
    13     5    24 1   
    14     5    49 2   
    15     6     7 1   
    16     6    20 1   
    17     6    21 1   
    18     6    51 1   
    19     7     8 1   
    20     7    27 1   
    21     7    30 1   
    22     8     9 1   
    23     8    31 1   
    24     8    32 1   
    25     9    10 1   
    26     9    33 1   
    27     9    34 1   
    28    10    11 1   
    29    10    35 1   
    30    10    36 1   
    31    11    37 1   
    32    11    38 1   
    33    11    50 1   
    34    12    13 2   
    35    12    50 1   
    36    13    22 1   
    37    13    39 1   
    38    14    15 1   
    39    14    22 1   
    40    14    40 1   
    41    14    41 1   
    42    15    18 ar  
    43    16    17 ar  
    44    16    42 1   
    45    18    43 1   
    46    19    20 1   
    47    19    27 1   
    48    19    44 1   
    49    19    45 1   
    50    20    24 1   
    51    20    46 1   
    52    21    47 1   
    53    22    23 1   
    54    24    48 1   
    55    50    52 1   
    56    50    53 1   
@<TRIPOS>SUBSTRUCTURE
     1 BTV         1 TEMP              0 ****  ****    0 ROOT
