@<TRIPOS>MOLECULE
BTW
   27    27     1     0     0
SMALL
bcc


@<TRIPOS>ATOM
      1 C1          0.0200    0.0110   -0.0730 c3        1 BTW     -0.032100
      2 O1          1.1380    2.6330    0.8990 o         1 BTW     -0.837300
      3 C2          1.4930    0.3710    0.0670 c3        1 BTW     -0.195700
      4 C3          2.1080   -0.2450    1.3100 c3        1 BTW      0.107400
      5 C4          3.5600    0.1400    1.4380 c3        1 BTW     -0.089100
      6 C5         -0.4070   -0.2200   -1.4810 ca        1 BTW     -0.053300
      7 C6         -1.3320   -1.2300   -1.7710 ca        1 BTW     -0.133500
      8 C7         -1.7650   -1.4410   -3.0800 ca        1 BTW     -0.143500
      9 C8         -1.2780   -0.6430   -4.1140 ca        1 BTW     -0.158000
     10 C10         0.0800    0.5790   -2.5260 ca        1 BTW     -0.133500
     11 C9         -0.3550    0.3650   -3.8320 ca        1 BTW     -0.143500
     12 C11         1.6750    1.9130    0.0090 c         1 BTW      0.910600
     13 O2          2.3420    2.3750   -0.9590 o         1 BTW     -0.837300
     14 S1          1.2500    0.1270    2.8480 sh        1 BTW     -0.567900
     15 H1         -0.2090   -0.9030    0.5400 hc        1 BTW      0.057200
     16 H1A        -0.5930    0.8560    0.3530 hc        1 BTW      0.057200
     17 H2          2.0600   -0.0510   -0.8120 hc        1 BTW      0.055700
     18 H3          2.0190   -1.3630    1.2490 h1        1 BTW      0.042700
     19 H4          4.1430   -0.2660    0.5740 hc        1 BTW      0.039033
     20 H4A         3.6640    1.2540    1.4340 hc        1 BTW      0.039033
     21 H4B         3.9930   -0.2640    2.3840 hc        1 BTW      0.039033
     22 H6         -1.7200   -1.8630   -0.9600 ha        1 BTW      0.158000
     23 H7         -2.4910   -2.2370   -3.2950 ha        1 BTW      0.114000
     24 H8         -1.6180   -0.8080   -5.1450 ha        1 BTW      0.108000
     25 H10         0.8160    1.3780   -2.2980 ha        1 BTW      0.158000
     26 H9          0.0320    0.9980   -4.6440 ha        1 BTW      0.114000
     27 HS1         0.9220    1.4170    2.5890 hs        1 BTW      0.323800
@<TRIPOS>BOND
     1    1    3 1   
     2    1    6 1   
     3    1   15 1   
     4    1   16 1   
     5    2   12 1   
     6    3    4 1   
     7    3   12 1   
     8    3   17 1   
     9    4    5 1   
    10    4   14 1   
    11    4   18 1   
    12    5   19 1   
    13    5   20 1   
    14    5   21 1   
    15    6    7 ar  
    16    6   10 ar  
    17    7    8 ar  
    18    7   22 1   
    19    8    9 ar  
    20    8   23 1   
    21    9   11 ar  
    22    9   24 1   
    23   10   11 ar  
    24   10   25 1   
    25   11   26 1   
    26   12   13 1   
    27   14   27 1   
@<TRIPOS>SUBSTRUCTURE
     1 BTW         1 TEMP              0 ****  ****    0 ROOT
