@<TRIPOS>MOLECULE
molecule
   27    27     1     0     0
SMALL
bcc


@<TRIPOS>ATOM
      1 C1           0.0000     0.0000     0.0000 c3         1 BTW      -0.021100
      2 O1           1.2470     2.0270    -1.1690 o          1 BTW      -0.842300
      3 C2           1.5300     0.0000     0.0000 c3         1 BTW      -0.155700
      4 C3           2.0400     0.0000     1.4430 c3         1 BTW       0.090400
      5 C4           3.5700     0.0010     1.4430 c3         1 BTW      -0.073100
      6 C5          -0.5020    -0.1240    -1.4150 ca         1 BTW      -0.058300
      7 C6          -0.7320    -1.3730    -1.9600 ca         1 BTW      -0.094000
      8 C7          -1.1920    -1.4870    -3.2590 ca         1 BTW      -0.155000
      9 C8          -1.4230    -0.3510    -4.0120 ca         1 BTW      -0.153000
     10 C10         -0.7380     1.0130    -2.1670 ca         1 BTW      -0.094000
     11 C9          -1.1940     0.8990    -3.4660 ca         1 BTW      -0.155000
     12 C11          2.0320     1.2320    -0.7100 c          1 BTW       0.901600
     13 O2           3.3520     1.4450    -0.8320 o          1 BTW      -0.842300
     14 S1           1.4340     1.4810     2.2980 sh         1 BTW      -0.406900
     15 H1          -0.3610     0.9260     0.4320 hc         1 BTW       0.041700
     16 H1A         -0.3610    -0.8370     0.5860 hc         1 BTW       0.041700
     17 H2           1.8920    -0.8840    -0.5110 hc         1 BTW       0.057700
     18 H3           1.6790    -0.8850     1.9530 h1         1 BTW       0.020700
     19 H4           3.9320    -0.5710     0.5970 hc         1 BTW       0.043700
     20 H4A          3.9310    -0.4460     2.3610 hc         1 BTW       0.043700
     21 H4B          3.9310     1.0200     1.3700 hc         1 BTW       0.043700
     22 H6          -0.5890    -2.2620    -1.3570 ha         1 BTW       0.147000
     23 H7          -1.3720    -2.4660    -3.6860 ha         1 BTW       0.107500
     24 H8          -1.8020    -0.4400    -5.0230 ha         1 BTW       0.102000
     25 H10         -0.6260     1.9920    -1.7170 ha         1 BTW       0.147000
     26 H9          -1.4290     1.7550    -4.0870 ha         1 BTW       0.107500
     27 HS1          1.3010     1.2210     3.5930 hs         1 BTW       0.157800
@<TRIPOS>BOND
     1     1     3 1
     2     1     6 1
     3     2    12 1
     4     3     4 1
     5     3    12 1
     6     4     5 1
     7     4    14 1
     8     6     7 ar
     9     6    10 ar
    10     7     8 ar
    11     8     9 ar
    12     9    11 ar
    13    10    11 ar
    14    12    13 1
    15     1    15 1
    16     1    16 1
    17     3    17 1
    18     4    18 1
    19     5    19 1
    20     5    20 1
    21     5    21 1
    22     7    22 1
    23     8    23 1
    24     9    24 1
    25    10    25 1
    26    11    26 1
    27    14    27 1
@<TRIPOS>SUBSTRUCTURE
     1 BTW         1 TEMP              0 ****  ****    0 ROOT
