@<TRIPOS>MOLECULE
molecule
   66    70     1     0     0
SMALL
bcc


@<TRIPOS>ATOM
      1 P            0.0000     0.0000     0.0000 p5         1 BTX       1.287800
      2 O1P          1.4800     0.0000     0.0000 o          1 BTX      -0.823500
      3 O2P         -0.5370     0.0000     1.5170 o          1 BTX      -0.823500
      4 O5'         -0.5370    -1.3150    -0.7590 os         1 BTX      -0.533200
      5 C5'          0.0650    -2.4390    -0.1130 c3         1 BTX       0.165400
      6 C4'         -0.4060    -3.7280    -0.7900 c3         1 BTX       0.125100
      7 O4'          0.0970    -3.8000    -2.1420 os         1 BTX      -0.390600
      8 C3'          0.1940    -4.9610    -0.0790 c3         1 BTX       0.083100
      9 O3'         -0.7490    -5.5210     0.8360 oh         1 BTX      -0.579800
     10 C2'          0.4870    -5.9520    -1.2300 c3         1 BTX       0.088100
     11 O2'         -0.2640    -7.1560    -1.0590 oh         1 BTX      -0.568800
     12 C1'          0.0320    -5.1970    -2.4990 c3         1 BTX       0.253800
     13 N9           0.9380    -5.4820    -3.6150 na         1 BTX      -0.246000
     14 C8           2.0220    -4.7420    -3.9820 cc         1 BTX       0.451700
     15 N7           2.6010    -5.2810    -5.0150 nd         1 BTX      -0.603100
     16 C5           1.9280    -6.4020    -5.3720 ca         1 BTX      -0.193200
     17 C6           2.0780    -7.3630    -6.3870 ca         1 BTX       0.773200
     18 N6           3.1170    -7.2760    -7.2970 nv         1 BTX      -1.012500
     19 N1           1.2010    -8.3600    -6.4500 nb         1 BTX      -0.828000
     20 C2           0.2070    -8.4510    -5.5850 ca         1 BTX       0.714900
     21 N3           0.0240    -7.5720    -4.6230 nb         1 BTX      -0.765000
     22 C4           0.8500    -6.5410    -4.4820 ca         1 BTX       0.464800
     23 CBB          0.0650     2.4380    -0.1150 c3         1 BTX       0.156400
     24 OBB         -0.5370     1.3150    -0.7590 os         1 BTX      -0.545200
     25 CAB         -0.4050     3.7270    -0.7920 c3         1 BTX      -0.082400
     26 C9B          0.2400     4.9310    -0.1020 c3         1 BTX      -0.082400
     27 C8B         -0.2310     6.2190    -0.7780 c3         1 BTX      -0.082400
     28 C7B          0.4130     7.4230    -0.0890 c3         1 BTX      -0.067400
     29 C2B         -0.0580     8.7110    -0.7650 c3         1 BTX       0.039400
     30 S1B          0.6540     8.8670    -2.4620 ss         1 BTX      -0.362200
     31 C6B          0.7140    10.7110    -2.5240 c3         1 BTX       0.013700
     32 C5B          0.9660    11.0580    -1.0410 c3         1 BTX       0.082700
     33 N1B          2.4150    11.1910    -0.8190 ns         1 BTX      -0.600900
     34 C3B          2.7930    10.3170     0.1240 c          1 BTX       0.819500
     35 O3B          3.9420    10.2110     0.5080 o          1 BTX      -0.684500
     36 N2B          1.7890     9.5710     0.6070 ns         1 BTX      -0.591900
     37 C4B          0.5390     9.9540    -0.0690 c3         1 BTX       0.089700
     38 H5'1         1.1430    -2.3640    -0.1890 h1         1 BTX       0.065700
     39 H5'2        -0.2230    -2.4530     0.9310 h1         1 BTX       0.065700
     40 H4'         -1.4880    -3.7860    -0.7890 h1         1 BTX       0.083700
     41 H3'          1.1120    -4.6930     0.4300 h1         1 BTX       0.055700
     42 H3          -0.3920    -5.4990     1.7090 ho         1 BTX       0.402000
     43 H1           1.5480    -6.1660    -1.2810 h1         1 BTX       0.049700
     44 H2'          0.2420    -7.7740    -0.5590 ho         1 BTX       0.401000
     45 H1'         -0.9840    -5.4720    -2.7530 h2         1 BTX       0.105700
     46 H8           2.3540    -3.8370    -3.4860 h5         1 BTX       0.103800
     47 HN61         3.4170    -6.3800    -7.6280 hn         1 BTX       0.443300
     48 HN62         3.5420    -8.1090    -7.6520 hn         1 BTX       0.443300
     49 H4          -0.4850    -9.2800    -5.6720 h5         1 BTX       0.054100
     50 H111        -0.2230     2.4520     0.9300 h1         1 BTX       0.053200
     51 H112         1.1430     2.3620    -0.1910 h1         1 BTX       0.053200
     52 H101        -1.4830     3.8020    -0.7160 hc         1 BTX       0.042700
     53 H102        -0.1170     3.7120    -1.8360 hc         1 BTX       0.042700
     54 H9B1         1.3180     4.8570    -0.1790 hc         1 BTX       0.043200
     55 H9B2        -0.0480     4.9460     0.9420 hc         1 BTX       0.043200
     56 H8B1        -1.3090     6.2940    -0.7020 hc         1 BTX       0.046700
     57 H8B2         0.0560     6.2050    -1.8230 hc         1 BTX       0.046700
     58 H7B1         0.1260     7.4380     0.9550 hc         1 BTX       0.057700
     59 H7B2         1.4910     7.3490    -0.1650 hc         1 BTX       0.057700
     60 H2B         -1.1390     8.7690    -0.7950 h1         1 BTX       0.077700
     61 H6B1        -0.2820    11.0580    -2.7720 h1         1 BTX       0.088200
     62 H6B2         1.6040    10.9860    -3.0760 h1         1 BTX       0.088200
     63 H5B          0.4680    11.9860    -0.7880 h1         1 BTX       0.058700
     64 H1B          3.0190    11.8320    -1.2930 hn         1 BTX       0.357500
     65 H2           1.8760     8.8680     1.3140 hn         1 BTX       0.369500
     66 H4B         -0.1660    10.3490     0.6520 h1         1 BTX       0.062700
@<TRIPOS>BOND
     1     1     2 1
     2     1     3 1
     3     1     4 1
     4     1    24 1
     5     4     5 1
     6     5     6 1
     7     5    38 1
     8     5    39 1
     9     6     7 1
    10     6     8 1
    11     6    40 1
    12     7    12 1
    13     8     9 1
    14     8    10 1
    15     8    41 1
    16     9    42 1
    17    10    11 1
    18    10    12 1
    19    10    43 1
    20    11    44 1
    21    12    13 1
    22    12    45 1
    23    13    14 1
    24    13    22 1
    25    14    15 2
    26    14    46 1
    27    15    16 1
    28    16    17 ar
    29    16    22 ar
    30    17    18 1
    31    17    19 ar
    32    18    47 1
    33    18    48 1
    34    19    20 ar
    35    20    21 ar
    36    20    49 1
    37    21    22 ar
    38    23    24 1
    39    23    25 1
    40    23    50 1
    41    23    51 1
    42    25    26 1
    43    25    52 1
    44    25    53 1
    45    26    27 1
    46    26    54 1
    47    26    55 1
    48    27    28 1
    49    27    56 1
    50    27    57 1
    51    28    29 1
    52    28    58 1
    53    28    59 1
    54    29    30 1
    55    29    37 1
    56    29    60 1
    57    30    31 1
    58    31    32 1
    59    31    61 1
    60    31    62 1
    61    32    33 1
    62    32    37 1
    63    32    63 1
    64    33    34 1
    65    33    64 1
    66    34    35 2
    67    34    36 1
    68    36    37 1
    69    36    65 1
    70    37    66 1
@<TRIPOS>SUBSTRUCTURE
     1 BTX         1 TEMP              0 ****  ****    0 ROOT
