@<TRIPOS>MOLECULE
molecule
   20    21     1     0     0
SMALL
bcc


@<TRIPOS>ATOM
      1 C1           0.0000     0.0000     0.0000 cc         1 BTY       0.642700
      2 C3           2.0160     0.0000     1.1410 c          1 BTY       0.840900
      3 C5          -0.0010     0.0010     2.3660 cc         1 BTY       0.093300
      4 C8          -2.1860     0.0030     2.7990 cd         1 BTY       0.465600
      5 O12          3.2330     0.0000     1.1030 o          1 BTY      -0.504500
      6 N2           1.3180     0.0000     0.0000 nd         1 BTY      -0.632100
      7 N4           1.3850     0.0000     2.3340 ns         1 BTY      -0.442100
      8 C9          -0.9120     0.0010     3.3740 cd         1 BTY      -0.329300
      9 C10         -3.4910     0.0040     3.5540 c3         1 BTY      -0.128400
     10 N7          -2.0570     0.0010     1.4960 nc         1 BTY      -0.554800
     11 N6          -0.6930     0.0000     1.1870 na         1 BTY      -0.021700
     12 N11         -0.6800     0.0050    -1.1830 nz         1 BTY      -0.741600
     13 HN4          1.9050     0.1520     3.1750 hn         1 BTY       0.390500
     14 H9          -0.6680     0.0050     4.4300 ha         1 BTY       0.201000
     15 H101        -4.3150     0.0020     2.8500 hc         1 BTY       0.079700
     16 H102        -3.5480     0.8900     4.1740 hc         1 BTY       0.079700
     17 H103        -3.5480    -0.8790     4.1790 hc         1 BTY       0.079700
     18 H111        -1.2600    -0.8080    -1.2370 hn         1 BTY       0.493467
     19 H112        -1.2490     0.8260    -1.2370 hn         1 BTY       0.493467
     20 H113        -0.0280     0.0010    -1.9420 hn         1 BTY       0.493467
@<TRIPOS>BOND
     1     1     6 2
     2     1    11 1
     3     1    12 1
     4     2     5 2
     5     2     6 1
     6     2     7 1
     7     3     7 1
     8     3     8 2
     9     3    11 1
    10     4     8 1
    11     4     9 1
    12     4    10 2
    13    10    11 1
    14     7    13 1
    15     8    14 1
    16     9    15 1
    17     9    16 1
    18     9    17 1
    19    12    18 1
    20    12    19 1
    21    20    12 1
@<TRIPOS>SUBSTRUCTURE
     1 BTY         1 TEMP              0 ****  ****    0 ROOT
