@<TRIPOS>MOLECULE
molecule
   38    39     1     0     0
SMALL
bcc


@<TRIPOS>ATOM
      1 C44          0.0000     0.0000     0.0000 cc         1 BTZ      -0.176400
      2 O49         -5.4910    -0.0000     4.3990 o          1 BTZ      -0.604100
      3 NP          -3.5400    -0.0010     5.4610 ns         1 BTZ      -0.578900
      4 C50         -4.2020    -0.0020     6.7680 c3         1 BTZ       0.120000
      5 C51         -3.1460    -0.0020     7.8750 c3         1 BTZ      -0.099400
      6 C52         -3.8370    -0.0020     9.2400 c3         1 BTZ      -0.087400
      7 C53         -2.7820    -0.0020    10.3470 c3         1 BTZ       0.202800
      8 C54         -2.6910    -0.0030    12.8050 c2         1 BTZ       0.696100
      9 NR          -3.4430    -0.0020    11.6530 nu         1 BTZ      -0.856200
     10 NS          -1.3190    -0.0030    12.7290 nz         1 BTZ      -0.805600
     11 NT          -3.2800    -0.0020    13.9670 n2         1 BTZ      -0.779100
     12 C48         -3.6110    -0.0020     3.0190 cd         1 BTZ       0.296800
     13 C47         -4.3010     0.0040     1.8570 cc         1 BTZ      -0.138400
     14 S46         -3.1980     0.0090     0.5510 ss         1 BTZ      -0.132300
     15 C46         -1.8420     0.0040     1.6710 cd         1 BTZ       0.424400
     16 NO          -2.2910    -0.0010     2.8900 nd         1 BTZ      -0.647000
     17 S43          1.7610     0.0000     0.0000 ss         1 BTZ      -0.161300
     18 C43          1.7750     0.0000     1.7090 cc         1 BTZ       0.436300
     19 NN           0.5730    -0.0010     2.1710 nd         1 BTZ      -0.654000
     20 C45         -0.4150     0.0040     1.2860 cd         1 BTZ       0.338300
     21 H44         -0.6370     0.0000    -0.8760 h4         1 BTZ       0.189000
     22 HNP         -2.5410    -0.0010     5.4060 hn         1 BTZ       0.336500
     23 H501        -4.8210     0.8830     6.8600 h1         1 BTZ       0.057700
     24 H502        -4.8210    -0.8860     6.8590 h1         1 BTZ       0.057700
     25 H511        -2.5280     0.8830     7.7840 hc         1 BTZ       0.052700
     26 H512        -2.5280    -0.8860     7.7840 hc         1 BTZ       0.052700
     27 H521        -4.4560     0.8820     9.3310 hc         1 BTZ       0.071700
     28 H522        -4.4560    -0.8870     9.3310 hc         1 BTZ       0.071700
     29 H531        -2.1630    -0.8870    10.2560 h1         1 BTZ       0.039700
     30 H532        -2.1620     0.8820    10.2550 h1         1 BTZ       0.039700
     31 HNR         -4.4430    -0.0010    11.7080 hn         1 BTZ       0.513800
     32 HNS1        -1.0110    -0.8200    12.2400 hn         1 BTZ       0.467800
     33 HNS2        -1.0120     0.8150    12.2410 hn         1 BTZ       0.467800
     34 HNT         -2.7340    -0.0020    14.8060 hn         1 BTZ       0.441400
     35 H47         -5.3810     0.0050     1.7680 h4         1 BTZ       0.209000
     36 H43          2.6700    -0.0020     2.3190 h5         1 BTZ       0.066100
     37 HS3         -0.9340    -0.0030    13.6530 hn         1 BTZ       0.467800
     38 C49         -4.2760    -0.0010     4.3320 c          1 BTZ       0.603600
@<TRIPOS>BOND
     1    10     8 1
     2    14    13 1
     3    14    15 1
     4    13    12 2
     5    19    20 1
     6    19    18 2
     7     8     9 1
     8     8    11 2
     9    15    20 1
    10    15    16 2
    11     9     7 1
    12    20     1 2
    13    12    16 1
    14    12    38 1
    15    18    17 1
    16     3    38 1
    17     3     4 1
    18     5     4 1
    19     5     6 1
    20    38     2 2
    21     1    17 1
    22     7     6 1
    23     1    21 1
    24     3    22 1
    25     4    23 1
    26     4    24 1
    27     5    25 1
    28     5    26 1
    29     6    27 1
    30     6    28 1
    31     7    29 1
    32     7    30 1
    33     9    31 1
    34    10    32 1
    35    10    33 1
    36    11    34 1
    37    13    35 1
    38    18    36 1
    39    37    10 1
@<TRIPOS>SUBSTRUCTURE
     1 BTZ         1 TEMP              0 ****  ****    0 ROOT
