@<TRIPOS>MOLECULE
molecule
   16    15     1     0     0
SMALL
bcc


@<TRIPOS>ATOM
      1 C1           0.0000     0.0000     0.0000 c3         1 BU1       0.142900
      2 C2           1.5300     0.0000     0.0000 c3         1 BU1      -0.081400
      3 C3           2.0410     0.0000     1.4410 c3         1 BU1      -0.081400
      4 C4           3.5700    -0.0000     1.4410 c3         1 BU1       0.142900
      5 O5          -0.4770     0.0000    -1.3450 oh         1 BU1      -0.612800
      6 O6           4.0480    -0.0000     2.7860 oh         1 BU1      -0.612800
      7 H11         -0.3610    -0.8840     0.5110 h1         1 BU1       0.020700
      8 H12         -0.3610     0.8840     0.5110 h1         1 BU1       0.020700
      9 H21          1.8900     0.8840    -0.5110 hc         1 BU1       0.053700
     10 H22          1.8900    -0.8840    -0.5110 hc         1 BU1       0.053700
     11 H31          1.6800    -0.8840     1.9520 hc         1 BU1       0.053700
     12 H32          1.6800     0.8840     1.9520 hc         1 BU1       0.053700
     13 H41          3.9310    -0.8840     0.9300 h1         1 BU1       0.020700
     14 H42          3.9310     0.8840     0.9300 h1         1 BU1       0.020700
     15 HO5         -1.4200     0.0000    -1.3450 ho         1 BU1       0.403000
     16 HO6          4.9900    -0.0000     2.7850 ho         1 BU1       0.403000
@<TRIPOS>BOND
     1     1     2 1
     2     1     5 1
     3     1     7 1
     4     1     8 1
     5     2     3 1
     6     2     9 1
     7     2    10 1
     8     3     4 1
     9     3    11 1
    10     3    12 1
    11     4     6 1
    12     4    13 1
    13     4    14 1
    14     5    15 1
    15     6    16 1
@<TRIPOS>SUBSTRUCTURE
     1 BU1         1 TEMP              0 ****  ****    0 ROOT
