@<TRIPOS>MOLECULE
molecule
   16    15     1     0     0
SMALL
bcc


@<TRIPOS>ATOM
      1 C1           0.0000     0.0000     0.0000 c3         1 BU2       0.140400
      2 O1           1.4280     0.0000     0.0000 oh         1 BU2      -0.614800
      3 C2          -0.5120     0.0000     1.4410 c3         1 BU2      -0.075400
      4 C3          -2.0410     0.0000     1.4390 c3         1 BU2       0.144100
      5 O3          -2.5170    -1.1650     0.7660 oh         1 BU2      -0.607800
      6 C4          -2.5520     0.0010     2.8810 c3         1 BU2      -0.119100
      7 HC11        -0.3610     0.8840    -0.5110 h1         1 BU2       0.024700
      8 HC12        -0.3610    -0.8840    -0.5110 h1         1 BU2       0.024700
      9 HO1          1.7430     0.0100    -0.8890 ho         1 BU2       0.402000
     10 HC21        -0.1510     0.8850     1.9520 hc         1 BU2       0.063200
     11 HC22        -0.1510    -0.8850     1.9520 hc         1 BU2       0.063200
     12 HC3         -2.4010     0.8850     0.9280 h1         1 BU2       0.026700
     13 HO3         -3.3760    -0.9960     0.4140 ho         1 BU2       0.401000
     14 HC41        -2.1610     0.8660     3.4030 hc         1 BU2       0.042367
     15 HC42        -3.6350     0.0390     2.8810 hc         1 BU2       0.042367
     16 HC43        -2.2230    -0.9020     3.3810 hc         1 BU2       0.042367
@<TRIPOS>BOND
     1     1     2 1
     2     1     3 1
     3     1     7 1
     4     1     8 1
     5     2     9 1
     6     3     4 1
     7     3    10 1
     8     3    11 1
     9     4     5 1
    10     4     6 1
    11     4    12 1
    12     5    13 1
    13     6    14 1
    14     6    15 1
    15     6    16 1
@<TRIPOS>SUBSTRUCTURE
     1 BU2         1 TEMP              0 ****  ****    0 ROOT
