@<TRIPOS>MOLECULE
BU3
   16    15     1     0     0
SMALL
bcc


@<TRIPOS>ATOM
      1 O6          0.0040   -0.1560   -0.0340 oh        1 BU3     -0.605800
      2 C3          1.4180   -0.0940   -0.0380 c3        1 BU3      0.126100
      3 C4          1.9770   -0.2570    1.3630 c3        1 BU3     -0.129100
      4 C2          1.9060    1.2270   -0.6670 c3        1 BU3      0.126100
      5 O5          1.2370    2.2650    0.0430 oh        1 BU3     -0.605800
      6 C1          1.5930    1.2720   -2.1490 c3        1 BU3     -0.129100
      7 HO6        -0.3130    0.6170    0.4520 ho        1 BU3      0.411000
      8 H3          1.7340   -0.9520   -0.6960 h1        1 BU3      0.056200
      9 H41         1.7230    0.6370    1.9830 hc        1 BU3      0.047200
     10 H42         3.0860   -0.3670    1.3250 hc        1 BU3      0.047200
     11 H43         1.5360   -1.1640    1.8430 hc        1 BU3      0.047200
     12 H2          3.0140    1.3340   -0.4990 h1        1 BU3      0.056200
     13 HO5         1.3390    3.0740   -0.4720 ho        1 BU3      0.411000
     14 H11         1.8710    2.2640   -2.5790 hc        1 BU3      0.047200
     15 H12         0.5000    1.1010   -2.3100 hc        1 BU3      0.047200
     16 H13         2.1630    0.4760   -2.6840 hc        1 BU3      0.047200
@<TRIPOS>BOND
     1    1    2 1   
     2    1    7 1   
     3    2    3 1   
     4    2    4 1   
     5    2    8 1   
     6    3    9 1   
     7    3   10 1   
     8    3   11 1   
     9    4    5 1   
    10    4    6 1   
    11    4   12 1   
    12    5   13 1   
    13    6   14 1   
    14    6   15 1   
    15    6   16 1   
@<TRIPOS>SUBSTRUCTURE
     1 BU3         1 TEMP              0 ****  ****    0 ROOT
