@<TRIPOS>MOLECULE
molecule
   16    15     1     0     0
SMALL
bcc


@<TRIPOS>ATOM
      1 O6           0.0000     0.0000     0.0000 oh         1 BU3      -0.588800
      2 C3           1.4290     0.0000     0.0000 c3         1 BU3       0.151100
      3 C4           1.9370     0.0000     1.4420 c3         1 BU3      -0.119100
      4 C2           1.9390     1.2460    -0.7220 c3         1 BU3       0.151100
      5 O5           1.4640     2.4140    -0.0510 oh         1 BU3      -0.588800
      6 C1           1.4300     1.2460    -2.1640 c3         1 BU3      -0.119100
      7 HO6         -0.3140    -0.8870     0.0540 ho         1 BU3       0.396000
      8 H3           1.7890    -0.8850    -0.5100 h1         1 BU3       0.029700
      9 H41          1.4230     0.7680     2.0070 hc         1 BU3       0.043700
     10 H42          1.7480    -0.9670     1.8920 hc         1 BU3       0.043700
     11 H43          3.0020     0.1990     1.4500 hc         1 BU3       0.043700
     12 H2           3.0220     1.2450    -0.7220 h1         1 BU3       0.029700
     13 HO5          2.0600     3.1290    -0.2040 ho         1 BU3       0.396000
     14 H11          1.6180     0.2780    -2.6140 hc         1 BU3       0.043700
     15 H12          0.3650     1.4470    -2.1720 hc         1 BU3       0.043700
     16 H13          1.9460     2.0120    -2.7290 hc         1 BU3       0.043700
@<TRIPOS>BOND
     1     1     2 1
     2     1     7 1
     3     2     3 1
     4     2     4 1
     5     2     8 1
     6     3     9 1
     7     3    10 1
     8     3    11 1
     9     4     5 1
    10     4     6 1
    11     4    12 1
    12     5    13 1
    13     6    14 1
    14     6    15 1
    15     6    16 1
@<TRIPOS>SUBSTRUCTURE
     1 BU3         1 TEMP              0 ****  ****    0 ROOT
