@<TRIPOS>MOLECULE
BU4
   16    15     1     0     0
SMALL
bcc


@<TRIPOS>ATOM
      1 C1          0.0200   -0.0260   -0.0200 c3        1 BU4      0.133400
      2 O1          1.4370   -0.0390    0.0660 oh        1 BU4     -0.605800
      3 C2         -0.5110    0.0090    1.4020 c3        1 BU4     -0.078400
      4 C3         -2.0350   -0.0280    1.4100 c3        1 BU4      0.140100
      5 O3         -2.4810    1.1710    0.7820 oh        1 BU4     -0.603800
      6 C4         -2.5660   -0.1340    2.8280 c3        1 BU4     -0.131100
      7 H1         -0.3310   -0.9520   -0.5520 h1        1 BU4      0.028700
      8 H1A        -0.3330    0.8760   -0.5870 h1        1 BU4      0.028700
      9 HO1         1.7670    0.0700   -0.8330 ho        1 BU4      0.399000
     10 H2         -0.1190   -0.8690    1.9750 hc        1 BU4      0.063200
     11 H2A        -0.1520    0.9430    1.9070 hc        1 BU4      0.063200
     12 H3         -2.3990   -0.9060    0.8030 h1        1 BU4      0.030700
     13 HO3        -3.4360    1.2120    0.9050 ho        1 BU4      0.400000
     14 H4         -2.2440    0.7500    3.4290 hc        1 BU4      0.044033
     15 H4A        -3.6820   -0.1720    2.8220 hc        1 BU4      0.044033
     16 H4B        -2.1790   -1.0600    3.3130 hc        1 BU4      0.044033
@<TRIPOS>BOND
     1    1    2 1   
     2    1    3 1   
     3    1    7 1   
     4    1    8 1   
     5    2    9 1   
     6    3    4 1   
     7    3   10 1   
     8    3   11 1   
     9    4    5 1   
    10    4    6 1   
    11    4   12 1   
    12    5   13 1   
    13    6   14 1   
    14    6   15 1   
    15    6   16 1   
@<TRIPOS>SUBSTRUCTURE
     1 BU4         1 TEMP              0 ****  ****    0 ROOT
