@<TRIPOS>MOLECULE
molecule
   16    15     1     0     0
SMALL
bcc


@<TRIPOS>ATOM
      1 C1           0.0000     0.0000     0.0000 c3         1 BU4       0.139400
      2 O1           1.4300     0.0000     0.0000 oh         1 BU4      -0.613800
      3 C2          -0.5100     0.0000     1.4430 c3         1 BU4      -0.076400
      4 C3          -2.0400    -0.0010     1.4430 c3         1 BU4       0.143100
      5 O3          -2.5170     1.2200     0.8730 oh         1 BU4      -0.607800
      6 C4          -2.5500    -0.1260     2.8800 c3         1 BU4      -0.118100
      7 H1          -0.3610     0.8850    -0.5110 h1         1 BU4       0.023700
      8 H1A         -0.3610    -0.8850    -0.5110 h1         1 BU4       0.023700
      9 HO1          1.7440    -0.0290    -0.8880 ho         1 BU4       0.401000
     10 H2          -0.1480    -0.8840     1.9530 hc         1 BU4       0.063700
     11 H2A         -0.1490     0.8850     1.9530 hc         1 BU4       0.063700
     12 H3          -2.4010    -0.8380     0.8570 h1         1 BU4       0.026700
     13 HO3         -3.3670     1.0770     0.4900 ho         1 BU4       0.401000
     14 H4          -3.6330    -0.1170     2.8810 hc         1 BU4       0.042367
     15 H4A         -2.1960    -1.0560     3.3090 hc         1 BU4       0.042367
     16 H4B         -2.1810     0.7060     3.4670 hc         1 BU4       0.042367
@<TRIPOS>BOND
     1     1     2 1
     2     1     3 1
     3     3     4 1
     4     4     5 1
     5     4     6 1
     6     1     7 1
     7     1     8 1
     8     2     9 1
     9     3    10 1
    10     3    11 1
    11     4    12 1
    12     5    13 1
    13     6    14 1
    14     6    15 1
    15     6    16 1
@<TRIPOS>SUBSTRUCTURE
     1 BU4         1 TEMP              0 ****  ****    0 ROOT
