@<TRIPOS>MOLECULE
molecule
   25    27     1     0     0
SMALL
bcc


@<TRIPOS>ATOM
      1 C10          0.0000     0.0000     0.0000 cc         1 BU5       0.562900
      2 C13          1.0920     0.0020     2.2360 cc         1 BU5      -0.156400
      3 C15          3.4010    -0.0030     1.3010 c3         1 BU5       0.121100
      4 C01         -3.2000    -0.0430    -0.0360 cd         1 BU5      -0.194200
      5 C02         -4.4710     0.4850    -0.0450 cc         1 BU5      -0.114100
      6 C04         -3.0280     2.1600    -0.0170 ca         1 BU5       0.447800
      7 C05         -2.3130     0.9960    -0.0180 ca         1 BU5      -0.193100
      8 C06         -0.9360     1.0350    -0.0020 ca         1 BU5      -0.058500
      9 C07         -0.2940     2.2280     0.0140 ca         1 BU5      -0.311300
     10 C08         -1.0230     3.4080     0.0150 ca         1 BU5       0.447200
     11 C12          1.9000     0.0000     1.1680 cd         1 BU5       0.369600
     12 N03         -4.3650     1.8380    -0.0340 na         1 BU5      -0.247100
     13 N09         -2.3750     3.3680     0.0000 nb         1 BU5      -0.704000
     14 N11          1.3040     0.0000     0.0000 nd         1 BU5      -0.604000
     15 O16          3.9070    -1.2290     0.8510 oh         1 BU5      -0.592800
     16 S14         -0.5750     0.0070     1.6660 ss         1 BU5      -0.258300
     17 H1           1.4030    -0.0660     3.2720 h4         1 BU5       0.181000
     18 H2           3.6720     0.1400     2.3400 h1         1 BU5       0.030200
     19 H3           3.8180     0.8000     0.7050 h1         1 BU5       0.030200
     20 H5          -5.3950    -0.0800    -0.0600 h4         1 BU5       0.177000
     21 H6           0.7680     2.2750    -0.1940 ha         1 BU5       0.156000
     22 H7          -0.5100     4.3620     0.0280 h4         1 BU5       0.031100
     23 H8          -5.1260     2.4880    -0.0370 hn         1 BU5       0.311700
     24 H9           4.8490    -1.2090     0.8770 ho         1 BU5       0.408000
     25 H4          -2.9480    -1.0970    -0.0410 ha         1 BU5       0.161000
@<TRIPOS>BOND
     1     5     4 2
     2     5    12 1
     3     4     7 1
     4    12     6 1
     5     3    15 1
     6     3    11 1
     7     7     6 ar
     8     7     8 ar
     9    14    11 1
    10    14     1 2
    11    11     2 2
    12     6    13 ar
    13     1     8 1
    14     1    16 1
    15     8     9 ar
    16     2    16 1
    17    13    10 ar
    18     9    10 ar
    19     2    17 1
    20     3    18 1
    21     3    19 1
    22     4    25 1
    23     5    20 1
    24     9    21 1
    25    10    22 1
    26    12    23 1
    27    15    24 1
@<TRIPOS>SUBSTRUCTURE
     1 BU5         1 TEMP              0 ****  ****    0 ROOT
