@<TRIPOS>MOLECULE
BU6
   39    41     1     0     0
SMALL
bcc


@<TRIPOS>ATOM
      1 C1           0.0000     0.0000     0.0000 ca         1 BU6      -0.023000
      2 C2           1.3820     0.0000     0.0000 ca         1 BU6      -0.154000
      3 C3           2.0740     0.0000     1.1990 ca         1 BU6       0.212900
      4 C4           1.3810    -0.0000     2.3980 ca         1 BU6      -0.181500
      5 C5          -0.0010    -0.0010     2.3970 ca         1 BU6       0.034000
      6 C6          -0.6920    -0.0010     1.1970 ca         1 BU6      -0.087600
      7 Cl7         -2.4280     0.0000     1.1970 cl         1 BU6      -0.004400
      8 S8           2.2600    -0.0020     3.9240 sy         1 BU6       1.038200
      9 O9           3.2430     1.0200     3.8220 o          1 BU6      -0.580300
     10 O10          1.2800    -0.0360     4.9520 o          1 BU6      -0.580300
     11 N11          3.0840    -1.4350     4.0150 nu         1 BU6      -0.349500
     12 C12          4.1120    -1.7150     3.0940 cc         1 BU6      -0.192700
     13 C13          5.1260    -0.8330     2.6960 cc         1 BU6       0.399200
     14 N14          5.8930    -1.4490     1.8320 nd         1 BU6      -0.639800
     15 N15          5.3960    -2.7460     1.6480 na         1 BU6       0.492400
     16 C16          4.3010    -2.8890     2.4400 cd         1 BU6      -0.270300
     17 C17          5.9600    -3.7670     0.7620 c3         1 BU6      -0.037000
     18 C18          6.8990    -4.6760     1.5610 c3         1 BU6      -0.041900
     19 C19          7.4370    -5.7770     0.6450 c3         1 BU6       0.152800
     20 N20          6.3160    -6.5570     0.1030 n7         1 BU6      -0.582200
     21 C21          5.4260    -5.7150    -0.7070 c3         1 BU6       0.152800
     22 C22          4.8280    -4.6120     0.1680 c3         1 BU6      -0.041900
     23 F23          3.4240    -0.0000     1.2000 f          1 BU6      -0.113900
     24 H1          -0.5410     0.0000    -0.9380 ha         1 BU6       0.117000
     25 H2           1.9230     0.0000    -0.9380 ha         1 BU6       0.127000
     26 H5          -0.5440    -0.0010     3.3340 ha         1 BU6       0.143000
     27 H11          2.8740    -2.0870     4.7440 hn         1 BU6       0.339800
     28 H13          5.2540     0.1850     3.0430 h4         1 BU6       0.045100
     29 H16          3.6860    -3.7770     2.5280 h4         1 BU6       0.152000
     30 H17          6.5140    -3.2930    -0.0400 h1         1 BU6       0.055700
     31 H181         7.7250    -4.0910     1.9450 hc         1 BU6       0.030950
     32 H182         6.3530    -5.1250     2.3820 hc         1 BU6       0.030950
     33 H221         4.2540    -5.0600     0.9700 hc         1 BU6       0.030950
     34 H222         4.1860    -3.9810    -0.4350 hc         1 BU6       0.030950
     35 H191         7.9900    -5.3280    -0.1710 h1         1 BU6       0.009700
     36 H192         8.0880    -6.4310     1.2130 h1         1 BU6       0.009700
     37 H20          6.6700    -7.3050    -0.4590 hn         1 BU6       0.256800
     38 H211         4.6280    -6.3230    -1.1140 h1         1 BU6       0.009700
     39 H212         5.9930    -5.2660    -1.5140 h1         1 BU6       0.009700
@<TRIPOS>BOND
     1     1     2 ar  
     2     1     6 ar  
     3     1    24 1   
     4     2     3 ar  
     5     2    25 1   
     6     3     4 ar  
     7     3    23 1   
     8     4     5 ar  
     9     4     8 1   
    10     5     6 ar  
    11     5    26 1   
    12     6     7 1   
    13     8     9 2   
    14     8    10 2   
    15     8    11 1   
    16    11    12 1   
    17    11    27 1   
    18    12    13 1   
    19    12    16 2   
    20    13    14 2   
    21    13    28 1   
    22    14    15 1   
    23    15    16 1   
    24    15    17 1   
    25    16    29 1   
    26    17    18 1   
    27    17    22 1   
    28    17    30 1   
    29    18    19 1   
    30    18    31 1   
    31    18    32 1   
    32    19    20 1   
    33    19    35 1   
    34    19    36 1   
    35    20    21 1   
    36    20    37 1   
    37    21    22 1   
    38    21    38 1   
    39    21    39 1   
    40    22    33 1   
    41    22    34 1   
@<TRIPOS>SUBSTRUCTURE
     1 BU6         1 TEMP              0 ****  ****    0 ROOT
