@<TRIPOS>MOLECULE
molecule
   39    41     1     0     0
SMALL
bcc


@<TRIPOS>ATOM
      1 C1           0.0000     0.0000     0.0000 ca         1 BU6      -0.047000
      2 C2           1.3820     0.0000     0.0000 ca         1 BU6      -0.182000
      3 C3           2.0740     0.0000     1.1990 ca         1 BU6       0.231900
      4 C4           1.3810    -0.0000     2.3980 ca         1 BU6      -0.343500
      5 C5          -0.0010    -0.0010     2.3970 ca         1 BU6       0.003000
      6 C6          -0.6920    -0.0010     1.1970 ca         1 BU6      -0.014600
      7 Cl7         -2.4280     0.0000     1.1970 cl         1 BU6      -0.092400
      8 S8           2.2600    -0.0020     3.9240 sy         1 BU6       1.430200
      9 O9           3.2430     1.0200     3.8220 o          1 BU6      -0.627300
     10 O10          1.2800    -0.0360     4.9520 o          1 BU6      -0.627300
     11 N11          3.0840    -1.4350     4.0150 nu         1 BU6      -0.742500
     12 C12          4.1120    -1.7150     3.0940 cc         1 BU6      -0.105700
     13 C13          5.1260    -0.8330     2.6960 cc         1 BU6       0.344200
     14 N14          5.8930    -1.4490     1.8320 nd         1 BU6      -0.502800
     15 N15          5.3960    -2.7460     1.6480 na         1 BU6       0.067400
     16 C16          4.3010    -2.8890     2.4400 cd         1 BU6      -0.119300
     17 C17          5.9600    -3.7670     0.7620 c3         1 BU6       0.084000
     18 C18          6.8990    -4.6760     1.5610 c3         1 BU6      -0.094900
     19 C19          7.4370    -5.7770     0.6450 c3         1 BU6       0.159300
     20 N20          6.3160    -6.5570     0.1030 n7         1 BU6      -0.821200
     21 C21          5.4260    -5.7150    -0.7070 c3         1 BU6       0.159300
     22 C22          4.8280    -4.6120     0.1680 c3         1 BU6      -0.094900
     23 F23          3.4240    -0.0000     1.2000 f          1 BU6      -0.110900
     24 H1          -0.5410     0.0000    -0.9380 ha         1 BU6       0.153000
     25 H2           1.9230     0.0000    -0.9380 ha         1 BU6       0.157000
     26 H5          -0.5440    -0.0010     3.3340 ha         1 BU6       0.176000
     27 H11          2.8740    -2.0870     4.7440 hn         1 BU6       0.461800
     28 H13          5.2540     0.1850     3.0430 h4         1 BU6       0.083100
     29 H16          3.6860    -3.7770     2.5280 h4         1 BU6       0.175000
     30 H17          6.5140    -3.2930    -0.0400 h1         1 BU6       0.082700
     31 H181         7.7250    -4.0910     1.9450 hc         1 BU6       0.061450
     32 H182         6.3530    -5.1250     2.3820 hc         1 BU6       0.061450
     33 H221         4.2540    -5.0600     0.9700 hc         1 BU6       0.061450
     34 H222         4.1860    -3.9810    -0.4350 hc         1 BU6       0.061450
     35 H191         7.9900    -5.3280    -0.1710 h1         1 BU6       0.037950
     36 H192         8.0880    -6.4310     1.2130 h1         1 BU6       0.037950
     37 H20          6.6700    -7.3050    -0.4590 hn         1 BU6       0.359800
     38 H211         4.6280    -6.3230    -1.1140 h1         1 BU6       0.037950
     39 H212         5.9930    -5.2660    -1.5140 h1         1 BU6       0.037950
@<TRIPOS>BOND
     1     1     2 ar
     2     1     6 ar
     3     2     3 ar
     4     3     4 ar
     5     3    23 1
     6     4     5 ar
     7     4     8 1
     8     5     6 ar
     9     6     7 1
    10     8     9 2
    11     8    10 2
    12     8    11 1
    13    11    12 1
    14    12    13 1
    15    12    16 2
    16    13    14 2
    17    14    15 1
    18    15    16 1
    19    15    17 1
    20    17    18 1
    21    17    22 1
    22    18    19 1
    23    19    20 1
    24    20    21 1
    25    21    22 1
    26     1    24 1
    27     2    25 1
    28     5    26 1
    29    11    27 1
    30    13    28 1
    31    16    29 1
    32    17    30 1
    33    18    31 1
    34    18    32 1
    35    22    33 1
    36    22    34 1
    37    19    35 1
    38    19    36 1
    39    20    37 1
    40    21    38 1
    41    21    39 1
@<TRIPOS>SUBSTRUCTURE
     1 BU6         1 TEMP              0 ****  ****    0 ROOT
