@<TRIPOS>MOLECULE
molecule
   34    35     1     0     0
SMALL
bcc


@<TRIPOS>ATOM
      1 CAA          0.0000     0.0000     0.0000 c3         1 BU7      -0.090100
      2 CAE          5.0850    -1.9970     5.7030 ce         1 BU7       0.061800
      3 CAF          5.3920    -5.7170     5.3710 ca         1 BU7      -0.163000
      4 CAG          3.2730    -5.0280     4.4500 ca         1 BU7      -0.163000
      5 CAH          5.6890    -4.4100     5.6810 ca         1 BU7      -0.060500
      6 CAI          3.5590    -3.7170     4.7550 ca         1 BU7      -0.060500
      7 CAJ          1.5290     0.0000     0.0000 c3         1 BU7      -0.079400
      8 CAK          2.0400     0.0000     1.4430 c3         1 BU7      -0.099400
      9 CAL          3.5690    -0.0000     1.4430 c3         1 BU7       0.081000
     10 CAN          4.1850    -6.0310     4.7550 ca         1 BU7       0.132100
     11 CAO          4.7740    -3.3950     5.3750 ca         1 BU7      -0.118800
     12 CAP          4.2800    -1.1430     3.4520 c          1 BU7       0.688700
     13 CAQ          4.2830     1.1550     3.4590 cs         1 BU7       0.440000
     14 CAR          4.7740    -1.0080     4.8270 cd         1 BU7      -0.149600
     15 NAS          4.0580    -0.0000     2.8240 n          1 BU7      -0.403400
     16 SAD          4.0580     2.7290     2.8240 s          1 BU7      -0.453400
     17 SAM          4.8700     0.7450     5.0810 ss         1 BU7      -0.095200
     18 H1          -0.3610    -0.0000    -1.0210 hc         1 BU7       0.035700
     19 H2          -0.3610    -0.8840     0.5110 hc         1 BU7       0.035700
     20 H3          -0.3610     0.8850     0.5110 hc         1 BU7       0.035700
     21 H4           5.4420    -1.7450     6.6950 ha         1 BU7       0.152000
     22 H6           6.0990    -6.5030     5.6070 ha         1 BU7       0.145000
     23 H7           2.3350    -5.2780     3.9700 ha         1 BU7       0.145000
     24 H8           6.6290    -4.1660     6.1610 ha         1 BU7       0.139000
     25 H9           2.8480    -2.9360     4.5160 ha         1 BU7       0.139000
     26 H10          1.8900    -0.8840    -0.5110 hc         1 BU7       0.044700
     27 H11          1.8900     0.8840    -0.5110 hc         1 BU7       0.044700
     28 H12          1.6790     0.8840     1.9530 hc         1 BU7       0.055700
     29 H13          1.6790    -0.8840     1.9530 hc         1 BU7       0.055700
     30 H14          3.9310    -0.8840     0.9320 h1         1 BU7       0.085700
     31 H15          3.9310     0.8850     0.9320 h1         1 BU7       0.085700
     32 H16          3.4500    -7.7250     5.1780 ho         1 BU7       0.423000
     33 OAB          4.0950    -2.2250     2.9270 o          1 BU7      -0.570500
     34 OAC          3.8970    -7.3230     4.4520 oh         1 BU7      -0.521100
@<TRIPOS>BOND
     1     3     5 ar
     2     3    10 ar
     3     5    11 ar
     4    34    10 1
     5    10     4 ar
     6     2    11 1
     7     2    14 2
     8    11     6 ar
     9    17    14 1
    10    17    13 1
    11    14    12 1
    12     4     6 ar
    13    13    16 2
    14    13    15 1
    15    12    15 1
    16    12    33 2
    17    15     9 1
    18     9     8 1
    19     8     7 1
    20     7     1 1
    21     1    18 1
    22     1    19 1
    23     1    20 1
    24     2    21 1
    25     3    22 1
    26     4    23 1
    27     5    24 1
    28     6    25 1
    29     7    26 1
    30     7    27 1
    31     8    28 1
    32     8    29 1
    33     9    30 1
    34     9    31 1
    35    34    32 1
@<TRIPOS>SUBSTRUCTURE
     1 BU7         1 TEMP              0 ****  ****    0 ROOT
