@<TRIPOS>MOLECULE
BU7
   34    35     1     0     0
SMALL
bcc


@<TRIPOS>ATOM
      1 CAA          0.0000     0.0000     0.0000 c3         1 BU7       0.006900
      2 CAE          5.0850    -1.9970     5.7030 ce         1 BU7       0.149800
      3 CAF          5.3920    -5.7170     5.3710 ca         1 BU7      -0.150000
      4 CAG          3.2730    -5.0280     4.4500 ca         1 BU7      -0.150000
      5 CAH          5.6890    -4.4100     5.6810 ca         1 BU7      -0.023500
      6 CAI          3.5590    -3.7170     4.7550 ca         1 BU7      -0.023500
      7 CAJ          1.5290     0.0000     0.0000 c3         1 BU7      -0.019400
      8 CAK          2.0400     0.0000     1.4430 c3         1 BU7      -0.046400
      9 CAL          3.5690    -0.0000     1.4430 c3         1 BU7      -0.011000
     10 CAN          4.1850    -6.0310     4.7550 ca         1 BU7       0.156100
     11 CAO          4.7740    -3.3950     5.3750 ca         1 BU7      -0.144800
     12 CAP          4.2800    -1.1430     3.4520 c          1 BU7       0.601700
     13 CAQ          4.2830     1.1550     3.4590 cs         1 BU7       0.339000
     14 CAR          4.7740    -1.0080     4.8270 cd         1 BU7      -0.154600
     15 NAS          4.0580    -0.0000     2.8240 n          1 BU7       0.033600
     16 SAD          4.0580     2.7290     2.8240 s          1 BU7      -0.478400
     17 SAM          4.8700     0.7450     5.0810 ss         1 BU7      -0.188200
     18 H1          -0.3610     0.8840     0.5110 hc         1 BU7       0.002700
     19 H2          -0.3610    -0.8850     0.5100 hc         1 BU7       0.002700
     20 H3          -0.3610     0.0010    -1.0210 hc         1 BU7       0.002700
     21 H4           5.5380    -1.7530     6.6570 ha         1 BU7       0.114000
     22 H6           6.0990    -6.5030     5.6070 ha         1 BU7       0.118500
     23 H7           2.3350    -5.2780     3.9700 ha         1 BU7       0.118500
     24 H8           6.6290    -4.1660     6.1610 ha         1 BU7       0.110000
     25 H9           2.8480    -2.9360     4.5160 ha         1 BU7       0.110000
     26 H10          1.8900    -0.8840    -0.5110 hc         1 BU7       0.016700
     27 H11          1.8900     0.8840    -0.5110 hc         1 BU7       0.016700
     28 H12          1.6790     0.8840     1.9530 hc         1 BU7       0.028700
     29 H13          1.6790    -0.8840     1.9530 hc         1 BU7       0.028700
     30 H14          3.9310     0.8850     0.9320 h1         1 BU7       0.063700
     31 H15          3.9310    -0.8840     0.9320 h1         1 BU7       0.063700
     32 H16          3.4500    -7.7250     5.1780 ho         1 BU7       0.406000
     33 OAB          4.0950    -2.2250     2.9270 o          1 BU7      -0.599500
     34 OAC          3.8970    -7.3230     4.4520 oh         1 BU7      -0.500100
@<TRIPOS>BOND
     1     1     7 1   
     2     1    18 1   
     3     1    19 1   
     4     1    20 1   
     5     2    11 1   
     6     2    14 2   
     7     2    21 1   
     8     3     5 ar  
     9     3    10 ar  
    10     3    22 1   
    11     4     6 ar  
    12     4    10 ar  
    13     4    23 1   
    14     5    11 ar  
    15     5    24 1   
    16     6    11 ar  
    17     6    25 1   
    18     7     8 1   
    19     7    26 1   
    20     7    27 1   
    21     8     9 1   
    22     8    28 1   
    23     8    29 1   
    24     9    15 1   
    25     9    30 1   
    26     9    31 1   
    27    10    34 1   
    28    12    14 1   
    29    12    15 1   
    30    12    33 2   
    31    13    15 1   
    32    13    16 2   
    33    13    17 1   
    34    14    17 1   
    35    32    34 1   
@<TRIPOS>SUBSTRUCTURE
     1 BU7         1 TEMP              0 ****  ****    0 ROOT
