@<TRIPOS>MOLECULE
BU8
   16    17     1     0     0
SMALL
bcc


@<TRIPOS>ATOM
      1 C02          0.0000     0.0000     0.0000 cc         1 BU8       0.305700
      2 C04          1.7740     0.0000     1.3230 ca         1 BU8      -0.386500
      3 C05          3.0080    -0.0010     1.9530 ca         1 BU8      -0.055000
      4 C06          3.0370    -0.0010     3.3380 ca         1 BU8      -0.216300
      5 C07          1.8460    -0.0000     4.0440 ca         1 BU8       0.388200
      6 C09          0.6010     0.0000     2.0980 ca         1 BU8       0.501300
      7 N01         -0.7920     0.0050    -1.1260 nv         1 BU8      -0.556800
      8 N03          1.3650     0.0000     0.0000 na         1 BU8       0.244700
      9 N08          0.6830    -0.0000     3.4270 nb         1 BU8      -0.514000
     10 N10         -0.4450     0.0010     1.2340 nd         1 BU8      -0.588700
     11 H1           3.9270    -0.0020     1.3780 ha         1 BU8       0.104000
     12 H2           3.9830    -0.0010     3.8650 ha         1 BU8       0.113000
     13 H3           1.8720    -0.0000     5.1270 h4         1 BU8      -0.019900
     14 H4          -0.9860     0.8670    -1.5970 hn         1 BU8       0.276800
     15 H5          -1.1940    -0.8490    -1.4590 hn         1 BU8       0.276800
     16 H6           1.9530    -0.1390    -0.7980 hn         1 BU8       0.126700
@<TRIPOS>BOND
     1     1     7 1   
     2     1     8 1   
     3     1    10 2   
     4     2     3 ar  
     5     2     6 ar  
     6     2     8 1   
     7     3     4 ar  
     8     3    11 1   
     9     4     5 ar  
    10     4    12 1   
    11     5     9 ar  
    12     5    13 1   
    13     6     9 ar  
    14     6    10 1   
    15     7    14 1   
    16     7    15 1   
    17     8    16 1   
@<TRIPOS>SUBSTRUCTURE
     1 BU8         1 TEMP              0 ****  ****    0 ROOT
