@<TRIPOS>MOLECULE
molecule
   16    15     1     0     0
SMALL
bcc


@<TRIPOS>ATOM
      1 C03          0.0000     0.0000     0.0000 c3         1 BU9      -0.116600
      2 C04          1.5300     0.0000     0.0000 c3         1 BU9       0.148100
      3 O06          2.0060     0.0000     1.3470 oh         1 BU9      -0.609800
      4 C05          2.0390     1.2500    -0.7230 c3         1 BU9       0.148100
      5 C01          3.5690     1.2500    -0.7230 c3         1 BU9      -0.116600
      6 O6           1.5630     1.2500    -2.0690 oh         1 BU9      -0.609800
      7 H011         3.9300     0.3230    -1.1530 hc         1 BU9       0.043367
      8 H012         3.9300     1.3400     0.2950 hc         1 BU9       0.043367
      9 H013         3.9300     2.0860    -1.3090 hc         1 BU9       0.043367
     10 H05          1.6780     2.1340    -0.2120 h1         1 BU9       0.041700
     11 H031        -0.3610    -0.0900    -1.0170 hc         1 BU9       0.043367
     12 H032        -0.3610    -0.8360     0.5870 hc         1 BU9       0.043367
     13 H033        -0.3610     0.9260     0.4310 hc         1 BU9       0.043367
     14 H04          1.8910    -0.8850    -0.5110 h1         1 BU9       0.041700
     15 H06          2.0580    -0.8870     1.6620 ho         1 BU9       0.406000
     16 H6           1.5120     2.1370    -2.3850 ho         1 BU9       0.406000
@<TRIPOS>BOND
     1     5     4 1
     2     1     2 1
     3     2     4 1
     4     2     3 1
     5     4     6 1
     6     5     7 1
     7     5     8 1
     8     5     9 1
     9     4    10 1
    10     1    11 1
    11     1    12 1
    12     1    13 1
    13     2    14 1
    14     3    15 1
    15     6    16 1
@<TRIPOS>SUBSTRUCTURE
     1 BU9         1 TEMP              0 ****  ****    0 ROOT
