@<TRIPOS>MOLECULE
BU9
   16    15     1     0     0
SMALL
bcc


@<TRIPOS>ATOM
      1 C03         0.0400   -0.0860    0.0560 c3        1 BU9     -0.129100
      2 C04         1.5530   -0.0020    0.0190 c3        1 BU9      0.143100
      3 O06         2.1020    0.1110    1.3290 oh        1 BU9     -0.607800
      4 C05         2.0240    1.2520   -0.7440 c3        1 BU9      0.143100
      5 C01         3.5370    1.3350   -0.7810 c3        1 BU9     -0.129100
      6 O6          1.4740    1.1390   -2.0540 oh        1 BU9     -0.607800
      7 H011        3.9590    0.4810   -1.3630 hc        1 BU9      0.048033
      8 H012        3.8610    2.2890   -1.2610 hc        1 BU9      0.048033
      9 H013        3.9370    1.2960    0.2610 hc        1 BU9      0.048033
     10 H05         1.5970    2.1670   -0.2460 h1        1 BU9      0.045700
     11 H031       -0.2840   -1.0400    0.5360 hc        1 BU9      0.048033
     12 H032       -0.3830    0.7680    0.6360 hc        1 BU9      0.048033
     13 H033       -0.3590   -0.0480   -0.9870 hc        1 BU9      0.048033
     14 H04         1.9800   -0.9170   -0.4790 h1        1 BU9      0.045700
     15 H06         1.6660   -0.5580    1.8690 ho        1 BU9      0.404000
     16 H6          1.9100    1.8080   -2.5940 ho        1 BU9      0.404000
@<TRIPOS>BOND
     1    1    2 1   
     2    1   11 1   
     3    1   12 1   
     4    1   13 1   
     5    2    3 1   
     6    2    4 1   
     7    2   14 1   
     8    3   15 1   
     9    4    5 1   
    10    4    6 1   
    11    4   10 1   
    12    5    7 1   
    13    5    8 1   
    14    5    9 1   
    15    6   16 1   
@<TRIPOS>SUBSTRUCTURE
     1 BU9         1 TEMP              0 ****  ****    0 ROOT
