@<TRIPOS>MOLECULE
molecule
   13    12     1     0     0
SMALL
bcc


@<TRIPOS>ATOM
      1 C1           0.0000     0.0000     0.0000 c3         1 BUA      -0.097100
      2 C2           1.5290     0.0000     0.0000 c3         1 BUA      -0.066400
      3 C3           2.0410     0.0000     1.4410 c3         1 BUA      -0.183400
      4 C4           3.5480    -0.0000     1.4400 c          1 BUA       0.891600
      5 O1           4.1500    -0.0000     0.3930 o          1 BUA      -0.859300
      6 O2           4.2200    -0.0000     2.6010 o          1 BUA      -0.859300
      7 H11         -0.3610     0.8850     0.5110 hc         1 BUA       0.012367
      8 H12         -0.3610    -0.0000    -1.0210 hc         1 BUA       0.012367
      9 H13         -0.3610    -0.8850     0.5110 hc         1 BUA       0.012367
     10 H21          1.8900     0.8840    -0.5110 hc         1 BUA       0.042700
     11 H22          1.8900    -0.8840    -0.5110 hc         1 BUA       0.042700
     12 H31          1.6810     0.8840     1.9520 hc         1 BUA       0.025700
     13 H32          1.6810    -0.8840     1.9520 hc         1 BUA       0.025700
@<TRIPOS>BOND
     1     1     2 1
     2     1     7 1
     3     1     8 1
     4     1     9 1
     5     2     3 1
     6     2    10 1
     7     2    11 1
     8     3     4 1
     9     3    12 1
    10     3    13 1
    11     4     5 1
    12     4     6 1
@<TRIPOS>SUBSTRUCTURE
     1 BUA         1 TEMP              0 ****  ****    0 ROOT
