@<TRIPOS>MOLECULE
BUA
   13    12     1     0     0
SMALL
bcc


@<TRIPOS>ATOM
      1 C1         -0.0020    0.0000    0.0010 c3        1 BUA     -0.087100
      2 C2          1.5060    0.0000    0.0210 c3        1 BUA     -0.066400
      3 C3          2.0580   -0.0000    1.4250 c3        1 BUA     -0.192400
      4 C4          3.5950   -0.0000    1.4530 c         1 BUA      0.907600
      5 O1          4.2350   -0.0000    0.3620 o         1 BUA     -0.855300
      6 O2          4.1520   -0.0000    2.5910 o         1 BUA     -0.855300
      7 H11        -0.4030   -0.9040    0.5190 hc        1 BUA      0.009033
      8 H12        -0.4030    0.9040    0.5190 hc        1 BUA      0.009033
      9 H13        -0.3830    0.0000   -1.0490 hc        1 BUA      0.009033
     10 H21         1.8980    0.8990   -0.5240 hc        1 BUA      0.042700
     11 H22         1.8980   -0.8980   -0.5240 hc        1 BUA      0.042700
     12 H31         1.6980    0.9020    1.9820 hc        1 BUA      0.018700
     13 H32         1.6980   -0.9030    1.9810 hc        1 BUA      0.018700
@<TRIPOS>BOND
     1    1    2 1   
     2    1    7 1   
     3    1    8 1   
     4    1    9 1   
     5    2    3 1   
     6    2   10 1   
     7    2   11 1   
     8    3    4 1   
     9    3   12 1   
    10    3   13 1   
    11    4    5 1   
    12    4    6 1   
@<TRIPOS>SUBSTRUCTURE
     1 BUA         1 TEMP              0 ****  ****    0 ROOT
