@<TRIPOS>MOLECULE
BUD
   16    15     1     0     0
SMALL
bcc


@<TRIPOS>ATOM
      1 C1          0.2990    0.5160   -0.2350 c3        1 BUD     -0.126100
      2 O1          1.4430   -1.6010   -0.5180 oh        1 BUD     -0.601800
      3 C2          1.5730   -0.2780   -0.0230 c3        1 BUD      0.105100
      4 O2          2.0100   -1.6600    1.9200 oh        1 BUD     -0.601800
      5 C3          1.9710   -0.3160    1.4680 c3        1 BUD      0.105100
      6 C4          3.2960    0.3820    1.7050 c3        1 BUD     -0.126100
      7 H1          0.0210    0.5050   -1.3170 hc        1 BUD      0.045367
      8 H1A         0.4480    1.5720    0.0920 hc        1 BUD      0.045367
      9 H1B        -0.5420    0.0720    0.3500 hc        1 BUD      0.045367
     10 HO1         0.7490   -2.0340   -0.0030 ho        1 BUD      0.411000
     11 H2          2.4080    0.1570   -0.6420 h1        1 BUD      0.076700
     12 HO2         2.6730   -2.1220    1.3900 ho        1 BUD      0.411000
     13 H3          1.1670    0.1550    2.1020 h1        1 BUD      0.076700
     14 H4          3.5710    0.3180    2.7850 hc        1 BUD      0.045367
     15 H4A         4.1060   -0.0990    1.1050 hc        1 BUD      0.045367
     16 H4B         3.2200    1.4560    1.4120 hc        1 BUD      0.045367
@<TRIPOS>BOND
     1    1    3 1   
     2    1    7 1   
     3    1    8 1   
     4    1    9 1   
     5    2    3 1   
     6    2   10 1   
     7    3    5 1   
     8    3   11 1   
     9    4    5 1   
    10    4   12 1   
    11    5    6 1   
    12    5   13 1   
    13    6   14 1   
    14    6   15 1   
    15    6   16 1   
@<TRIPOS>SUBSTRUCTURE
     1 BUD         1 TEMP              0 ****  ****    0 ROOT
