@<TRIPOS>MOLECULE
molecule
   16    15     1     0     0
SMALL
bcc


@<TRIPOS>ATOM
      1 C1           0.0000     0.0000     0.0000 c3         1 BUD      -0.118100
      2 O1           2.0060    -1.1670    -0.6730 oh         1 BUD      -0.590800
      3 C2           1.5300     0.0000     0.0000 c3         1 BUD       0.151100
      4 O2           1.4700    -1.1030     2.1500 oh         1 BUD      -0.590800
      5 C3           2.0390     0.0000     1.4440 c3         1 BUD       0.151100
      6 C4           3.5640    -0.1260     1.4450 c3         1 BUD      -0.118100
      7 H1          -0.3610     0.7530     0.6900 hc         1 BUD       0.044033
      8 H1A         -0.3610    -0.9740     0.3070 hc         1 BUD       0.044033
      9 H1B         -0.3610     0.2210    -0.9970 hc         1 BUD       0.044033
     10 HO1          2.0540    -0.9970    -1.5990 ho         1 BUD       0.396000
     11 H2           1.8910     0.8840    -0.5110 h1         1 BUD       0.029700
     12 HO2          1.4370    -0.9040     3.0710 ho         1 BUD       0.396000
     13 H3           1.7530     0.9260     1.9280 h1         1 BUD       0.029700
     14 H4           3.9440     0.0940     2.4360 hc         1 BUD       0.044033
     15 H4A          3.9850     0.5740     0.7340 hc         1 BUD       0.044033
     16 H4B          3.8440    -1.1350     1.1680 hc         1 BUD       0.044033
@<TRIPOS>BOND
     1     1     3 1
     2     1     7 1
     3     1     8 1
     4     1     9 1
     5     2     3 1
     6     2    10 1
     7     3     5 1
     8     3    11 1
     9     5     4 1
    10     4    12 1
    11     5     6 1
    12     5    13 1
    13     6    14 1
    14     6    15 1
    15     6    16 1
@<TRIPOS>SUBSTRUCTURE
     1 BUD         1 TEMP              0 ****  ****    0 ROOT
