@<TRIPOS>MOLECULE
molecule
   62    61     1     0     0
SMALL
bcc


@<TRIPOS>ATOM
      1 O34          0.0000     0.0000     0.0000 o          1 BUE      -0.909167
      2 P35          1.4800     0.0000     0.0000 p5         1 BUE       1.316900
      3 O36          2.0170     0.0000     1.5180 o          1 BUE      -0.909167
      4 O37          2.0170    -1.3140    -0.7580 o          1 BUE      -0.909167
      5 O38          2.0160     1.3150    -0.7590 os         1 BUE      -0.713800
      6 P39          1.6150     2.8740    -0.7130 p5         1 BUE       1.430800
      7 O40          0.2290     3.0950    -1.5000 o          1 BUE      -0.864500
      8 O41          1.4580     3.3020     0.6950 o          1 BUE      -0.864500
      9 O42          2.7750     3.7460    -1.4120 os         1 BUE      -0.596200
     10 C43          2.7650     5.1750    -1.4380 c3         1 BUE       0.246600
     11 C44          3.9870     5.6720    -2.1660 c2         1 BUE      -0.110200
     12 H4           2.7690     5.5550    -0.4240 h1         1 BUE       0.027700
     13 H5           1.8750     5.5200    -1.9500 h1         1 BUE       0.027700
     14 H6           4.3130     5.1810    -3.0750 ha         1 BUE       0.118000
     15 C1           4.6840     6.6660    -1.6730 c2         1 BUE      -0.210400
     16 C2           5.9380     7.1260    -2.3710 c3         1 BUE      -0.035900
     17 C15          4.2320     7.3490    -0.4090 c3         1 BUE      -0.024200
     18 H7           6.5880     7.6180    -1.6580 hc         1 BUE       0.018700
     19 H8           6.4490     6.2700    -2.7960 hc         1 BUE       0.018700
     20 H25          3.1600     7.2350    -0.3000 hc         1 BUE       0.034200
     21 H26          4.4800     8.4020    -0.4590 hc         1 BUE       0.034200
     22 C19          4.9360     6.7150     0.7930 c3         1 BUE      -0.051200
     23 C20          4.4840     7.3990     2.0580 c2         1 BUE      -0.201200
     24 C21          3.9930     6.6900     3.0450 c2         1 BUE      -0.117400
     25 C22          3.6260     7.3610     4.3440 c3         1 BUE      -0.049900
     26 C3           3.7960     5.2050     2.8820 c3         1 BUE      -0.043200
     27 H9           5.6770     7.8200    -3.1610 hc         1 BUE       0.018700
     28 H10          6.0080     6.8290     0.6850 hc         1 BUE       0.068200
     29 H11          4.6880     5.6620     0.8430 hc         1 BUE       0.068200
     30 H12          4.6250     8.4660     2.1770 ha         1 BUE       0.085000
     31 H13          2.9890     6.7030     4.9220 hc         1 BUE       0.024033
     32 H14          4.5270     7.5770     4.9050 hc         1 BUE       0.024033
     33 H15          3.0990     8.2840     4.1370 hc         1 BUE       0.024033
     34 H16          3.6160     4.9760     1.8390 hc         1 BUE       0.094700
     35 H17          2.9460     4.8860     3.4730 hc         1 BUE       0.094700
     36 C4           5.0520     4.4690     3.3560 c3         1 BUE      -0.050200
     37 C5           4.8540     2.9840     3.1930 c2         1 BUE      -0.157200
     38 C6           5.6110     2.3110     2.3630 c2         1 BUE      -0.120400
     39 C7           5.5060     0.8090     2.2970 c3         1 BUE      -0.052900
     40 C8           6.5860     3.0370     1.4730 c3         1 BUE      -0.005200
     41 H18          5.2310     4.6970     4.4000 hc         1 BUE       0.020700
     42 H19          5.9020     4.7880     2.7650 hc         1 BUE       0.020700
     43 H20          4.1540     2.4600     3.8320 ha         1 BUE       0.147000
     44 H21          4.5530     0.4950     2.7050 hc         1 BUE       0.052700
     45 H22          6.3090     0.3650     2.8730 hc         1 BUE       0.052700
     46 H23          5.5810     0.4860     1.2650 hc         1 BUE       0.052700
     47 H24          6.2110     4.0310     1.2610 hc         1 BUE       0.067700
     48 H27          6.7050     2.4900     0.5450 hc         1 BUE       0.067700
     49 C9           7.9390     3.1440     2.1790 c3         1 BUE      -0.074200
     50 C10          8.9150     3.8700     1.2890 c2         1 BUE      -0.484200
     51 C11         10.0770     3.3310     1.0130 c2         1 BUE      -0.068400
     52 C12         10.4970     2.0550     1.6940 c3         1 BUE      -0.070400
     53 C13         10.9940     3.9900     0.0150 c3         1 BUE      -0.070400
     54 H28          7.8210     3.6900     3.1070 hc         1 BUE       0.017200
     55 H29          8.3150     2.1500     2.3910 hc         1 BUE       0.017200
     56 H30          8.9850     3.9230     2.3690 ha         1 BUE       0.294000
     57 H31          9.8740     1.2390     1.3470 hc         1 BUE       0.029700
     58 H32         10.3850     2.1640     2.7660 hc         1 BUE       0.029700
     59 H33         11.5330     1.8440     1.4590 hc         1 BUE       0.029700
     60 H34         10.4630     4.7840    -0.4950 hc         1 BUE       0.029700
     61 H35         11.3270     3.2550    -0.7090 hc         1 BUE       0.029700
     62 H36         11.8530     4.4020     0.5310 hc         1 BUE       0.029700
@<TRIPOS>BOND
     1     1     2 1
     2     3     2 1
     3     2     5 1
     4     2     4 1
     5     5     6 1
     6     9     6 1
     7     9    10 1
     8     8     6 1
     9     6     7 1
    10    10    11 1
    11    10    12 1
    12    10    13 1
    13    11    14 1
    14    11    15 2
    15    15    16 1
    16    15    17 1
    17    16    18 1
    18    16    19 1
    19    17    20 1
    20    17    21 1
    21    17    22 1
    22    22    23 1
    23    23    24 2
    24    24    25 1
    25    24    26 1
    26    16    27 1
    27    22    28 1
    28    22    29 1
    29    23    30 1
    30    25    31 1
    31    25    32 1
    32    25    33 1
    33    26    34 1
    34    26    35 1
    35    26    36 1
    36    36    37 1
    37    37    38 2
    38    38    39 1
    39    38    40 1
    40    36    41 1
    41    36    42 1
    42    37    43 1
    43    39    44 1
    44    39    45 1
    45    39    46 1
    46    40    47 1
    47    40    48 1
    48    40    49 1
    49    49    50 1
    50    50    51 2
    51    51    52 1
    52    51    53 1
    53    49    54 1
    54    49    55 1
    55    50    56 1
    56    52    57 1
    57    52    58 1
    58    52    59 1
    59    53    60 1
    60    53    61 1
    61    53    62 1
@<TRIPOS>SUBSTRUCTURE
     1 BUE         1 TEMP              0 ****  ****    0 ROOT
