@<TRIPOS>MOLECULE
BUF
   62    66     1     0     0
SMALL
bcc


@<TRIPOS>ATOM
      1 C18         1.6950   -0.1420   -0.1850 c3        1 BUF     -0.088100
      2 C13         0.1850   -0.0800   -0.1080 c3        1 BUF     -0.065000
      3 C12        -0.2590   -0.0760    1.3580 c3        1 BUF     -0.070400
      4 C11        -0.1450   -1.4220    2.0350 c3        1 BUF     -0.077400
      5 C9         -1.0190   -2.4460    1.3250 c3        1 BUF     -0.043700
      6 C10        -1.0680   -3.7980    2.0580 c3        1 BUF     -0.033000
      7 C19         0.3390   -4.3490    2.2850 c3        1 BUF     -0.089100
      8 C1         -1.7120   -3.6700    3.4450 c3        1 BUF     -0.072400
      9 C2         -3.1880   -3.3490    3.4250 c3        1 BUF     -0.070400
     10 C3         -3.9680   -4.3710    2.6070 c3        1 BUF      0.142100
     11 O3         -3.9450   -5.5960    3.3310 oh        1 BUF     -0.599800
     12 C4         -3.3700   -4.5070    1.2130 c3        1 BUF     -0.108400
     13 C5         -1.8810   -4.8210    1.2410 c3        1 BUF     -0.051700
     14 C6         -1.3490   -4.9490   -0.1780 c3        1 BUF     -0.074400
     15 C7         -1.3090   -3.6180   -0.8940 c3        1 BUF     -0.074400
     16 C8         -0.5140   -2.5860   -0.1110 c3        1 BUF     -0.074700
     17 C14        -0.4920   -1.2520   -0.8800 c3        1 BUF      0.161800
     18 O14         0.1710   -1.4810   -2.1280 oh        1 BUF     -0.611800
     19 C15        -1.8790   -0.7100   -1.2690 c3        1 BUF     -0.073400
     20 C16        -1.7630    0.8060   -1.3360 c3        1 BUF     -0.077400
     21 C17        -0.3990    1.2090   -0.7560 c3        1 BUF      0.005500
     22 C20         0.4770    1.8550   -1.7730 cc        1 BUF     -0.215200
     23 C22         1.1080    3.1110   -1.4640 cc        1 BUF     -0.018000
     24 C23         1.8850    3.7230   -2.3880 cd        1 BUF     -0.278200
     25 C24         2.0880    3.1200   -3.6910 c         1 BUF      0.708800
     26 O24         2.7470    3.5070   -4.6550 o         1 BUF     -0.575500
     27 O21         1.4650    1.8960   -3.9670 os        1 BUF     -0.322200
     28 C21         0.6890    1.3150   -3.0080 cd        1 BUF      0.099100
     29 H1          2.0640   -1.1030    0.2490 hc        1 BUF      0.040367
     30 H2          2.0440   -0.0710   -1.2440 hc        1 BUF      0.040367
     31 H3          2.1450    0.7060    0.3870 hc        1 BUF      0.040367
     32 H4          0.3580    0.6750    1.9190 hc        1 BUF      0.042700
     33 H5         -1.3300    0.2610    1.4090 hc        1 BUF      0.042700
     34 H6          0.9230   -1.7630    2.0350 hc        1 BUF      0.046200
     35 H7         -0.4650   -1.3120    3.1030 hc        1 BUF      0.046200
     36 H8         -2.0740   -2.0490    1.2930 hc        1 BUF      0.051700
     37 H9          0.9230   -4.3820    1.3360 hc        1 BUF      0.035700
     38 H10         0.8880   -3.7110    3.0190 hc        1 BUF      0.035700
     39 H11         0.2830   -5.3860    2.6970 hc        1 BUF      0.035700
     40 H12        -1.1710   -2.8940    4.0450 hc        1 BUF      0.049700
     41 H13        -1.5810   -4.6540    3.9750 hc        1 BUF      0.049700
     42 H14        -3.3700   -2.3330    2.9890 hc        1 BUF      0.049700
     43 H15        -3.5780   -3.3500    4.4770 hc        1 BUF      0.049700
     44 H16        -5.0430   -4.0400    2.5140 h1        1 BUF      0.029700
     45 H17        -4.2800   -6.2780    2.7370 ho        1 BUF      0.398000
     46 H18        -3.5530   -3.5490    0.6600 hc        1 BUF      0.045200
     47 H19        -3.9010   -5.3240    0.6580 hc        1 BUF      0.045200
     48 H20        -1.7650   -5.8190    1.7550 hc        1 BUF      0.055700
     49 H21        -1.9960   -5.6600   -0.7550 hc        1 BUF      0.041700
     50 H22        -0.3170   -5.3890   -0.1440 hc        1 BUF      0.041700
     51 H23        -0.8410   -3.7440   -1.9070 hc        1 BUF      0.048200
     52 H24        -2.3540   -3.2460   -1.0600 hc        1 BUF      0.048200
     53 H25         0.5580   -2.9400   -0.0600 hc        1 BUF      0.047700
     54 H26         1.0310   -1.8720   -1.9330 ho        1 BUF      0.404000
     55 H27        -2.6300   -1.0170   -0.5000 hc        1 BUF      0.058200
     56 H28        -2.1910   -1.1350   -2.2560 hc        1 BUF      0.058200
     57 H29        -1.8640    1.1600   -2.3920 hc        1 BUF      0.048200
     58 H30        -2.5820    1.2840   -0.7430 hc        1 BUF      0.048200
     59 H31        -0.5660    1.9670    0.0620 hc        1 BUF      0.053700
     60 H32         0.9430    3.5550   -0.4690 ha        1 BUF      0.144000
     61 H33         2.3910    4.6830   -2.2130 ha        1 BUF      0.167000
     62 H34         0.2800    0.3520   -3.3700 h4        1 BUF      0.208000
@<TRIPOS>BOND
     1    1    2 1   
     2    1   29 1   
     3    1   30 1   
     4    1   31 1   
     5    2    3 1   
     6    2   17 1   
     7    2   21 1   
     8    3    4 1   
     9    3   32 1   
    10    3   33 1   
    11    4    5 1   
    12    4   34 1   
    13    4   35 1   
    14    5    6 1   
    15    5   16 1   
    16    5   36 1   
    17    6    7 1   
    18    6    8 1   
    19    6   13 1   
    20    7   37 1   
    21    7   38 1   
    22    7   39 1   
    23    8    9 1   
    24    8   40 1   
    25    8   41 1   
    26    9   10 1   
    27    9   42 1   
    28    9   43 1   
    29   10   11 1   
    30   10   12 1   
    31   10   44 1   
    32   11   45 1   
    33   12   13 1   
    34   12   46 1   
    35   12   47 1   
    36   13   14 1   
    37   13   48 1   
    38   14   15 1   
    39   14   49 1   
    40   14   50 1   
    41   15   16 1   
    42   15   51 1   
    43   15   52 1   
    44   16   17 1   
    45   16   53 1   
    46   17   18 1   
    47   17   19 1   
    48   18   54 1   
    49   19   20 1   
    50   19   55 1   
    51   19   56 1   
    52   20   21 1   
    53   20   57 1   
    54   20   58 1   
    55   21   22 1   
    56   21   59 1   
    57   22   23 1   
    58   22   28 2   
    59   23   24 2   
    60   23   60 1   
    61   24   25 1   
    62   24   61 1   
    63   25   26 2   
    64   25   27 1   
    65   27   28 1   
    66   28   62 1   
@<TRIPOS>SUBSTRUCTURE
     1 BUF         1 TEMP              0 ****  ****    0 ROOT
