@<TRIPOS>MOLECULE
molecule
   62    66     1     0     0
SMALL
bcc


@<TRIPOS>ATOM
      1 C18          1.5300     0.0000     0.0000 c3         1 BUF      -0.072100
      2 C13          0.0000     0.0000     0.0000 c3         1 BUF      -0.037000
      3 C12         -0.5640     0.0000     1.4220 c3         1 BUF      -0.069400
      4 C11         -0.3540    -1.3570     2.0880 c3         1 BUF      -0.082400
      5 C9          -1.1240    -2.4170     1.2920 c3         1 BUF      -0.053700
      6 C10         -0.9900    -3.7770     1.9800 c3         1 BUF      -0.051000
      7 C19          0.4890    -4.1560     2.0730 c3         1 BUF      -0.088100
      8 C1          -1.5850    -3.7010     3.3860 c3         1 BUF      -0.065400
      9 C2          -3.0680    -3.3330     3.2950 c3         1 BUF      -0.094400
     10 C3          -3.8090    -4.3970     2.4830 c3         1 BUF       0.147100
     11 O3          -3.6710    -5.6670     3.1250 oh         1 BUF      -0.603800
     12 C4          -3.2140    -4.4690     1.0760 c3         1 BUF      -0.086400
     13 C5          -1.7360    -4.8380     1.1680 c3         1 BUF      -0.051700
     14 C6          -1.1380    -4.9140    -0.2370 c3         1 BUF      -0.076400
     15 C7          -1.2750    -3.5530    -0.9250 c3         1 BUF      -0.083400
     16 C8          -0.5300    -2.4930    -0.1140 c3         1 BUF      -0.086700
     17 C14         -0.5690    -1.1600    -0.8350 c3         1 BUF       0.165800
     18 O14          0.1460    -1.2720    -2.0680 oh         1 BUF      -0.604800
     19 C15         -2.0050    -0.6870    -1.1270 c3         1 BUF      -0.115400
     20 C16         -1.8340     0.8210    -1.4240 c3         1 BUF      -0.087400
     21 C17         -0.5770     1.2560    -0.7070 c3         1 BUF      -0.005500
     22 C20          0.4060     1.7730    -1.7260 cc         1 BUF      -0.215200
     23 C22          1.4040     2.6850    -1.3410 cc         1 BUF      -0.026000
     24 C23          2.2830     3.1390    -2.2790 cd         1 BUF      -0.295200
     25 C24          2.1630     2.6820    -3.6040 c          1 BUF       0.725800
     26 O24          2.9410     3.0770    -4.4580 o          1 BUF      -0.595500
     27 O21          1.1950     1.8100    -3.9300 os         1 BUF      -0.293200
     28 C21          0.3340     1.3570    -3.0080 cd         1 BUF       0.108100
     29 H1           1.8910    -0.8820     0.5140 hc         1 BUF       0.043033
     30 H2           1.8910    -0.0040    -1.0210 hc         1 BUF       0.043033
     31 H3           1.8910     0.8870     0.5070 hc         1 BUF       0.043033
     32 H4          -1.6250     0.2170     1.3840 hc         1 BUF       0.044700
     33 H5          -0.0600     0.7620     2.0040 hc         1 BUF       0.044700
     34 H6          -0.7280    -1.3240     3.1040 hc         1 BUF       0.050200
     35 H7           0.7010    -1.6010     2.0900 hc         1 BUF       0.050200
     36 H8          -2.1700    -2.1400     1.2320 hc         1 BUF       0.054700
     37 H9           1.0070    -3.4380     2.6980 hc         1 BUF       0.038367
     38 H10          0.9260    -4.1530     1.0810 hc         1 BUF       0.038367
     39 H11          0.5830    -5.1450     2.5060 hc         1 BUF       0.038367
     40 H12         -1.0620    -2.9440     3.9580 hc         1 BUF       0.051700
     41 H13         -1.4830    -4.6630     3.8730 hc         1 BUF       0.051700
     42 H14         -3.4880    -3.2840     4.2920 hc         1 BUF       0.045200
     43 H15         -3.1710    -2.3710     2.8060 hc         1 BUF       0.045200
     44 H16         -4.8570    -4.1330     2.4170 h1         1 BUF       0.026700
     45 H17         -4.5180    -5.9690     3.4090 ho         1 BUF       0.399000
     46 H18         -3.3150    -3.5040     0.5930 hc         1 BUF       0.047700
     47 H19         -3.7380    -5.2230     0.5020 hc         1 BUF       0.047700
     48 H20         -1.6350    -5.8000     1.6540 hc         1 BUF       0.072700
     49 H21         -1.6680    -5.6620    -0.8140 hc         1 BUF       0.046200
     50 H22         -0.0900    -5.1780    -0.1690 hc         1 BUF       0.046200
     51 H23         -0.8510    -3.6080    -1.9200 hc         1 BUF       0.039200
     52 H24         -2.3230    -3.2860    -0.9880 hc         1 BUF       0.039200
     53 H25          0.5060    -2.7990    -0.0270 hc         1 BUF       0.071700
     54 H26         -0.3230    -1.8440    -2.6520 ho         1 BUF       0.403000
     55 H27         -2.6380    -0.8340    -0.2600 hc         1 BUF       0.052700
     56 H28         -2.4060    -1.2020    -1.9920 hc         1 BUF       0.052700
     57 H29         -2.6860     1.3720    -1.0450 hc         1 BUF       0.049200
     58 H30         -1.7270     0.9790    -2.4900 hc         1 BUF       0.049200
     59 H31         -0.8080     2.0220     0.0220 hc         1 BUF       0.062700
     60 H32          1.4740     3.0220    -0.3130 ha         1 BUF       0.140000
     61 H33          3.0610     3.8430    -2.0090 ha         1 BUF       0.167000
     62 H34         -0.4370     0.6540    -3.2980 h4         1 BUF       0.199000
@<TRIPOS>BOND
     1    11    10 1
     2    12    10 1
     3    12    13 1
     4    10     9 1
     5    13    14 1
     6    13     6 1
     7    14    15 1
     8     7     6 1
     9     8     6 1
    10     8     9 1
    11     6     5 1
    12    15    16 1
    13     5    16 1
    14     5     4 1
    15    16    17 1
    16     4     3 1
    17    17    18 1
    18    17    19 1
    19    17     2 1
    20    19    20 1
    21     3     2 1
    22     2     1 1
    23     2    21 1
    24    20    21 1
    25    21    22 1
    26    23    22 1
    27    23    24 2
    28    22    28 2
    29    24    25 1
    30    28    27 1
    31    25    27 1
    32    25    26 2
    33     1    29 1
    34     1    30 1
    35     1    31 1
    36     3    32 1
    37     3    33 1
    38     4    34 1
    39     4    35 1
    40     5    36 1
    41     7    37 1
    42     7    38 1
    43     7    39 1
    44     8    40 1
    45     8    41 1
    46     9    42 1
    47     9    43 1
    48    10    44 1
    49    11    45 1
    50    12    46 1
    51    12    47 1
    52    13    48 1
    53    14    49 1
    54    14    50 1
    55    15    51 1
    56    15    52 1
    57    16    53 1
    58    18    54 1
    59    19    55 1
    60    19    56 1
    61    20    57 1
    62    20    58 1
    63    21    59 1
    64    23    60 1
    65    24    61 1
    66    28    62 1
@<TRIPOS>SUBSTRUCTURE
     1 BUF         1 TEMP              0 ****  ****    0 ROOT
