@<TRIPOS>MOLECULE
molecule
   73    72     1     0     0
SMALL
bcc


@<TRIPOS>ATOM
      1 O9           0.0000     0.0000     0.0000 o          1 BUI      -0.826800
      2 C3           1.2200     0.0000     0.0000 c          1 BUI       0.925600
      3 O8           1.8310     0.0000     1.0560 o          1 BUI      -0.826800
      4 C2           1.9730     0.0000    -1.3060 c3         1 BUI      -0.235400
      5 C5           0.9840     0.1460    -2.4640 c3         1 BUI       0.142700
      6 C10          1.7320     0.0090    -3.7930 c3         1 BUI       0.063800
      7 N6           0.7690     0.0380    -4.9010 n4         1 BUI      -0.569800
      8 C14          0.1040     1.3480    -4.9380 c3         1 BUI       0.095100
      9 C13          1.4760    -0.1860    -6.1700 c3         1 BUI       0.095100
     10 C12         -0.2350    -1.0150    -4.7060 c3         1 BUI       0.095100
     11 N4           0.3440     1.4620    -2.3980 ns         1 BUI      -0.594900
     12 C1           1.0930     2.5800    -2.4670 c          1 BUI       0.776100
     13 O7           2.3040     2.4970    -2.5360 o          1 BUI      -0.668100
     14 N11          0.4990     3.7910    -2.4630 ns         1 BUI      -0.604900
     15 C15          1.3130     5.0060    -2.5390 c3         1 BUI       0.127000
     16 C16          0.3990     6.2330    -2.5150 c3         1 BUI      -0.102400
     17 C24          1.2500     7.5030    -2.5940 c3         1 BUI      -0.077400
     18 C26          0.3370     8.7300    -2.5710 c3         1 BUI      -0.081400
     19 C27          1.1870    10.0000    -2.6510 c3         1 BUI      -0.081400
     20 C19          0.2730    11.2270    -2.6280 c3         1 BUI      -0.081400
     21 C20          1.1240    12.4970    -2.7070 c3         1 BUI      -0.081400
     22 C21          0.2110    13.7240    -2.6840 c3         1 BUI      -0.082400
     23 C22          1.0610    14.9940    -2.7640 c3         1 BUI      -0.082400
     24 C23          0.1470    16.2210    -2.7400 c3         1 BUI      -0.082400
     25 C25          0.9980    17.4910    -2.8190 c3         1 BUI      -0.082400
     26 C18          0.0850    18.7190    -2.7960 c3         1 BUI      -0.081400
     27 C17          0.9340    19.9880    -2.8760 c3         1 BUI      -0.084400
     28 C28          0.0210    21.2160    -2.8530 c3         1 BUI      -0.092100
     29 H21          2.6710     0.8290    -1.3200 hc         1 BUI       0.062200
     30 H22          2.5160    -0.9310    -1.4100 hc         1 BUI       0.062200
     31 H5           0.2290    -0.6270    -2.3940 h1         1 BUI       0.080700
     32 H101         2.4310     0.8290    -3.9000 hx         1 BUI       0.112200
     33 H102         2.2720    -0.9300    -3.8080 hx         1 BUI       0.112200
     34 H141        -0.6730     1.3790    -4.1840 hx         1 BUI       0.091144
     35 H142         0.8300     2.1270    -4.7410 hx         1 BUI       0.091144
     36 H143        -0.3350     1.5020    -5.9160 hx         1 BUI       0.091144
     37 H131         2.2250     0.5840    -6.3070 hx         1 BUI       0.091144
     38 H132         0.7670    -0.1510    -6.9890 hx         1 BUI       0.091144
     39 H133         1.9560    -1.1570    -6.1490 hx         1 BUI       0.091144
     40 H121        -0.8420    -1.1060    -5.5990 hx         1 BUI       0.091144
     41 H122        -0.8670    -0.7610    -3.8640 hx         1 BUI       0.091144
     42 H123         0.2640    -1.9570    -4.5120 hx         1 BUI       0.091144
     43 HN4         -0.6430     1.5300    -2.2450 hn         1 BUI       0.325500
     44 H11         -0.4950     3.8600    -2.3740 hn         1 BUI       0.309500
     45 H151         1.9880     5.0420    -1.6920 h1         1 BUI       0.054200
     46 H152         1.8870     5.0000    -3.4580 h1         1 BUI       0.054200
     47 H161        -0.2760     6.1970    -3.3620 hc         1 BUI       0.045700
     48 H162        -0.1740     6.2390    -1.5960 hc         1 BUI       0.045700
     49 H241         1.8230     7.4970    -3.5130 hc         1 BUI       0.046700
     50 H242         1.9250     7.5390    -1.7480 hc         1 BUI       0.046700
     51 H261        -0.2360     8.7370    -1.6520 hc         1 BUI       0.041700
     52 H262        -0.3390     8.6940    -3.4170 hc         1 BUI       0.041700
     53 H271         1.8630    10.0360    -1.8050 hc         1 BUI       0.042700
     54 H272         1.7600     9.9930    -3.5710 hc         1 BUI       0.042700
     55 H191        -0.3000    11.2330    -1.7090 hc         1 BUI       0.041200
     56 H192        -0.4020    11.1910    -3.4740 hc         1 BUI       0.041200
     57 H201         1.6970    12.4900    -3.6260 hc         1 BUI       0.041700
     58 H202         1.7990    12.5320    -1.8600 hc         1 BUI       0.041700
     59 H211        -0.3620    13.7300    -1.7640 hc         1 BUI       0.040700
     60 H212        -0.4650    13.6880    -3.5300 hc         1 BUI       0.040700
     61 H221         1.7360    15.0310    -1.9170 hc         1 BUI       0.041200
     62 H222         1.6340    14.9880    -3.6830 hc         1 BUI       0.041200
     63 H231        -0.4260    16.2270    -1.8210 hc         1 BUI       0.041200
     64 H232        -0.5280    16.1850    -3.5870 hc         1 BUI       0.041200
     65 H251         1.6730    17.5270    -1.9730 hc         1 BUI       0.041200
     66 H252         1.5710    17.4850    -3.7380 hc         1 BUI       0.041200
     67 H181        -0.5910    18.6830    -3.6420 hc         1 BUI       0.041200
     68 H182        -0.4880    18.7250    -1.8770 hc         1 BUI       0.041200
     69 H171         1.6100    20.0250    -2.0300 hc         1 BUI       0.040200
     70 H172         1.5070    19.9820    -3.7950 hc         1 BUI       0.040200
     71 H281        -0.5490    21.2240    -1.9320 hc         1 BUI       0.032367
     72 H282         0.6230    22.1140    -2.9130 hc         1 BUI       0.032367
     73 H283        -0.6570    21.1780    -3.6970 hc         1 BUI       0.032367
@<TRIPOS>BOND
     1     1     2 1
     2     2     3 1
     3     2     4 1
     4     4     5 1
     5     4    29 1
     6     4    30 1
     7     5     6 1
     8     5    11 1
     9     5    31 1
    10     6     7 1
    11     6    32 1
    12     6    33 1
    13     7     8 1
    14     7     9 1
    15     7    10 1
    16     8    34 1
    17     8    35 1
    18     8    36 1
    19     9    37 1
    20     9    38 1
    21     9    39 1
    22    10    40 1
    23    10    41 1
    24    10    42 1
    25    11    12 1
    26    11    43 1
    27    12    13 2
    28    12    14 1
    29    14    15 1
    30    14    44 1
    31    15    16 1
    32    15    45 1
    33    15    46 1
    34    16    17 1
    35    16    47 1
    36    16    48 1
    37    17    18 1
    38    17    49 1
    39    17    50 1
    40    18    19 1
    41    18    51 1
    42    18    52 1
    43    19    20 1
    44    19    53 1
    45    19    54 1
    46    20    21 1
    47    20    55 1
    48    20    56 1
    49    21    22 1
    50    21    57 1
    51    21    58 1
    52    22    23 1
    53    22    59 1
    54    22    60 1
    55    23    24 1
    56    23    61 1
    57    23    62 1
    58    24    25 1
    59    24    63 1
    60    24    64 1
    61    25    26 1
    62    25    65 1
    63    25    66 1
    64    26    27 1
    65    26    67 1
    66    26    68 1
    67    27    28 1
    68    27    69 1
    69    27    70 1
    70    28    71 1
    71    28    72 1
    72    28    73 1
@<TRIPOS>SUBSTRUCTURE
     1 BUI         1 TEMP              0 ****  ****    0 ROOT
