@<TRIPOS>MOLECULE
BUJ
   74    73     1     0     0
SMALL
bcc


@<TRIPOS>ATOM
      1 O14          0.0000     0.0000     0.0000 o          1 BUJ      -0.879300
      2 C7           1.2200     0.0000     0.0000 c          1 BUJ       1.008600
      3 O13          1.8300     0.0000     1.0550 o          1 BUJ      -0.879300
      4 C4           1.9730    -0.0060    -1.3060 c3         1 BUJ      -0.192400
      5 C1           0.9810    -0.1180    -2.4650 c3         1 BUJ       0.042700
      6 C3           1.7490    -0.2350    -3.7840 c3         1 BUJ      -0.074200
      7 N6           0.8000    -0.4290    -4.8880 n4         1 BUJ       0.064200
      8 C12         -0.0500     0.7610    -5.0180 c3         1 BUJ       0.000433
      9 C11          1.5410    -0.6400    -6.1400 c3         1 BUJ       0.000433
     10 C10         -0.0380    -1.6040    -4.6120 c3         1 BUJ       0.000433
     11 N2           0.1310     1.0740    -2.5000 ns         1 BUJ      -0.184900
     12 C5           0.6870     2.2940    -2.6260 c          1 BUJ       0.578100
     13 O9           1.8840     2.4020    -2.7870 o          1 BUJ      -0.660100
     14 C8          -0.1780     3.5270    -2.5670 c3         1 BUJ      -0.101400
     15 C15          0.6950     4.7720    -2.7340 c3         1 BUJ      -0.015400
     16 C16         -0.1840     6.0240    -2.6750 c3         1 BUJ      -0.031400
     17 C17          0.6890     7.2680    -2.8430 c3         1 BUJ      -0.027400
     18 C18         -0.1890     8.5200    -2.7820 c3         1 BUJ      -0.029400
     19 C19          0.6840     9.7640    -2.9510 c3         1 BUJ      -0.029400
     20 C20         -0.1950    11.0160    -2.8900 c3         1 BUJ      -0.029400
     21 C21          0.6780    12.2610    -3.0590 c3         1 BUJ      -0.029400
     22 C22         -0.2010    13.5110    -2.9990 c3         1 BUJ      -0.029400
     23 C23          0.6720    14.7570    -3.1660 c3         1 BUJ      -0.029400
     24 C24         -0.2060    16.0080    -3.1070 c3         1 BUJ      -0.029400
     25 C25          0.6670    17.2530    -3.2740 c3         1 BUJ      -0.029400
     26 C26         -0.2120    18.5030    -3.2150 c3         1 BUJ      -0.030400
     27 C27          0.6610    19.7490    -3.3830 c3         1 BUJ      -0.028400
     28 C28         -0.2180    21.0000    -3.3220 c3         1 BUJ       0.005900
     29 H41          2.6520    -0.8500    -1.3270 hc         1 BUJ       0.041200
     30 H42          2.5370     0.9140    -1.4010 hc         1 BUJ       0.041200
     31 H1           0.3640    -0.9980    -2.3280 h1         1 BUJ       0.055700
     32 H31          2.4250    -1.0800    -3.7350 hx         1 BUJ       0.097700
     33 H32          2.3180     0.6720    -3.9520 hx         1 BUJ       0.097700
     34 H121         0.5370     1.6480    -4.8120 hx         1 BUJ       0.070478
     35 H122        -0.8690     0.6980    -4.3110 hx         1 BUJ       0.070478
     36 H123        -0.4450     0.8150    -6.0250 hx         1 BUJ       0.070478
     37 H111         2.1750     0.2170    -6.3330 hx         1 BUJ       0.070478
     38 H112         0.8410    -0.7640    -6.9570 hx         1 BUJ       0.070478
     39 H113         2.1530    -1.5300    -6.0510 hx         1 BUJ       0.070478
     40 H101        -0.4690    -1.9650    -5.5380 hx         1 BUJ       0.070478
     41 H102         0.5680    -2.3840    -4.1670 hx         1 BUJ       0.070478
     42 H103        -0.8320    -1.3280    -3.9280 hx         1 BUJ       0.070478
     43 H2          -0.8590     0.9850    -2.3770 hn         1 BUJ       0.194500
     44 H81         -0.9120     3.4920    -3.3620 hc         1 BUJ       0.033700
     45 H82         -0.6840     3.5680    -1.6100 hc         1 BUJ       0.033700
     46 H151         1.2020     4.7320    -3.6910 hc         1 BUJ       0.029200
     47 H152         1.4290     4.8080    -1.9380 hc         1 BUJ       0.029200
     48 H161        -0.6900     6.0640    -1.7180 hc         1 BUJ       0.013200
     49 H162        -0.9190     5.9870    -3.4700 hc         1 BUJ       0.013200
     50 H171         1.4240     7.3040    -2.0480 hc         1 BUJ       0.017200
     51 H172         1.1940     7.2280    -3.8000 hc         1 BUJ       0.017200
     52 H181        -0.9240     8.4840    -3.5770 hc         1 BUJ       0.014200
     53 H182        -0.6950     8.5600    -1.8250 hc         1 BUJ       0.014200
     54 H191         1.1890     9.7240    -3.9080 hc         1 BUJ       0.015200
     55 H192         1.4190     9.8000    -2.1560 hc         1 BUJ       0.015200
     56 H201        -0.7000    11.0560    -1.9330 hc         1 BUJ       0.014700
     57 H202        -0.9300    10.9800    -3.6850 hc         1 BUJ       0.014700
     58 H211         1.4130    12.2970    -2.2630 hc         1 BUJ       0.015200
     59 H212         1.1840    12.2200    -4.0160 hc         1 BUJ       0.015200
     60 H221        -0.7080    13.5510    -2.0420 hc         1 BUJ       0.014700
     61 H222        -0.9350    13.4750    -3.7950 hc         1 BUJ       0.014700
     62 H231         1.4060    14.7930    -2.3710 hc         1 BUJ       0.014700
     63 H232         1.1790    14.7170    -4.1230 hc         1 BUJ       0.014700
     64 H241        -0.7130    16.0490    -2.1500 hc         1 BUJ       0.014200
     65 H242        -0.9400    15.9720    -3.9030 hc         1 BUJ       0.014200
     66 H251         1.1730    17.2130    -4.2310 hc         1 BUJ       0.014200
     67 H252         1.4010    17.2890    -2.4780 hc         1 BUJ       0.014200
     68 H261        -0.9460    18.4670    -4.0100 hc         1 BUJ       0.014700
     69 H262        -0.7180    18.5440    -2.2580 hc         1 BUJ       0.014700
     70 H271         1.3960    19.7850    -2.5880 hc         1 BUJ       0.012200
     71 H272         1.1670    19.7090    -4.3400 hc         1 BUJ       0.012200
     72 H281        -0.7310    21.0340    -2.3690 hc         1 BUJ      -0.000300
     73 H282        -0.9470    20.9680    -4.1230 hc         1 BUJ      -0.000300
     74 H283         0.4010    21.8820    -3.4320 hc         1 BUJ      -0.000300
@<TRIPOS>BOND
     1     1     2 1   
     2     2     3 1   
     3     2     4 1   
     4     4     5 1   
     5     4    29 1   
     6     4    30 1   
     7     5     6 1   
     8     5    11 1   
     9     5    31 1   
    10     6     7 1   
    11     6    32 1   
    12     6    33 1   
    13     7     8 1   
    14     7     9 1   
    15     7    10 1   
    16     8    34 1   
    17     8    35 1   
    18     8    36 1   
    19     9    37 1   
    20     9    38 1   
    21     9    39 1   
    22    10    40 1   
    23    10    41 1   
    24    10    42 1   
    25    11    12 1   
    26    11    43 1   
    27    12    13 2   
    28    12    14 1   
    29    14    15 1   
    30    14    44 1   
    31    14    45 1   
    32    15    16 1   
    33    15    46 1   
    34    15    47 1   
    35    16    17 1   
    36    16    48 1   
    37    16    49 1   
    38    17    18 1   
    39    17    50 1   
    40    17    51 1   
    41    18    19 1   
    42    18    52 1   
    43    18    53 1   
    44    19    20 1   
    45    19    54 1   
    46    19    55 1   
    47    20    21 1   
    48    20    56 1   
    49    20    57 1   
    50    21    22 1   
    51    21    58 1   
    52    21    59 1   
    53    22    23 1   
    54    22    60 1   
    55    22    61 1   
    56    23    24 1   
    57    23    62 1   
    58    23    63 1   
    59    24    25 1   
    60    24    64 1   
    61    24    65 1   
    62    25    26 1   
    63    25    66 1   
    64    25    67 1   
    65    26    27 1   
    66    26    68 1   
    67    26    69 1   
    68    27    28 1   
    69    27    70 1   
    70    27    71 1   
    71    28    72 1   
    72    28    73 1   
    73    28    74 1   
@<TRIPOS>SUBSTRUCTURE
     1 BUJ         1 TEMP              0 ****  ****    0 ROOT
