@<TRIPOS>MOLECULE
molecule
   27    26     1     0     0
SMALL
bcc


@<TRIPOS>ATOM
      1 CG2          0.0000     0.0000     0.0000 c3         1 BUM      -0.098100
      2 CG3          2.0390     1.2500    -0.7220 c3         1 BUM      -0.098100
      3 CB           1.5300     0.0000     0.0000 c3         1 BUM      -0.092000
      4 CA           2.0410     0.0000     1.4410 c3         1 BUM       0.031500
      5 CG1          2.0410    -1.2490    -0.7230 c3         1 BUM      -0.098100
      6 C            3.5470     0.0010     1.4400 c          1 BUM       0.638100
      7 O            4.1530     1.0510     1.4400 o          1 BUM      -0.590100
      8 N            1.5500     1.1990     2.1330 nz         1 BUM      -0.796600
      9 N2           4.2210    -1.1650     1.4400 ns         1 BUM      -0.547900
     10 CN2          5.6860    -1.1650     1.4400 c3         1 BUM       0.095300
     11 HG21        -0.3610    -0.7420     0.7020 hc         1 BUM       0.058922
     12 HG22        -0.3610    -0.2370    -0.9930 hc         1 BUM       0.058922
     13 HG23        -0.3610     0.9790     0.2910 hc         1 BUM       0.058922
     14 HG31         1.6180     2.1330    -0.2570 hc         1 BUM       0.058922
     15 HG32         1.7400     1.2130    -1.7630 hc         1 BUM       0.058922
     16 HG33         3.1200     1.2890    -0.6580 hc         1 BUM       0.058922
     17 HA           1.6810    -0.8850     1.9520 hx         1 BUM       0.113700
     18 HG11         1.8510    -2.1230    -0.1110 hc         1 BUM       0.058922
     19 HG12         1.5270    -1.3530    -1.6700 hc         1 BUM       0.058922
     20 HG13         3.1050    -1.1550    -0.8980 hc         1 BUM       0.058922
     21 HN1          0.5640     1.1190     2.2820 hn         1 BUM       0.463133
     22 HN2          1.7390     2.0080     1.5740 hn         1 BUM       0.463133
     23 H2           3.7220    -2.0310     1.4810 hn         1 BUM       0.328500
     24 HN21         6.0470    -0.6570     0.5540 h1         1 BUM       0.065033
     25 HN22         6.0460    -2.1870     1.4420 h1         1 BUM       0.065033
     26 HN23         6.0470    -0.6530     2.3230 h1         1 BUM       0.065033
     27 HN3          2.0090     1.2840     3.0190 hn         1 BUM       0.463133
@<TRIPOS>BOND
     1     1     3 1
     2     1    11 1
     3     1    12 1
     4     1    13 1
     5     2     3 1
     6     2    14 1
     7     2    15 1
     8     2    16 1
     9     3     4 1
    10     3     5 1
    11     4     6 1
    12     4     8 1
    13     4    17 1
    14     5    18 1
    15     5    19 1
    16     5    20 1
    17     6     7 2
    18     6     9 1
    19     8    21 1
    20     8    22 1
    21     9    10 1
    22     9    23 1
    23    10    24 1
    24    10    25 1
    25    10    26 1
    26    27     8 1
@<TRIPOS>SUBSTRUCTURE
     1 BUM         1 TEMP              0 ****  ****    0 ROOT
