@<TRIPOS>MOLECULE
molecule
   32    33     1     0     0
SMALL
bcc


@<TRIPOS>ATOM
      1 O2           0.0000     0.0000     0.0000 o          1 BUN      -0.515100
      2 C6           1.2190     0.0000     0.0000 c          1 BUN       0.576900
      3 C7           1.9560     0.0000     1.2760 ca         1 BUN      -0.198600
      4 C12          1.2580     0.0000     2.4930 ca         1 BUN       0.190100
      5 O4          -0.0990    -0.0000     2.5000 oh         1 BUN      -0.481100
      6 C11          1.9580     0.0000     3.6870 ca         1 BUN      -0.235000
      7 C10          3.3460     0.0000     3.6790 ca         1 BUN       0.158100
      8 O3           4.0280    -0.0000     4.8510 oh         1 BUN      -0.521100
      9 C9           4.0400     0.0000     2.4720 ca         1 BUN      -0.188000
     10 C8           3.3550    -0.0060     1.2790 ca         1 BUN      -0.058000
     11 C5           1.9490    -0.0060    -1.2670 ce         1 BUN      -0.265200
     12 C4           1.2720    -0.0110    -2.4360 cf         1 BUN      -0.024200
     13 C3           2.0060    -0.0180    -3.7100 ca         1 BUN      -0.075800
     14 C2           1.3080    -0.0230    -4.9230 ca         1 BUN      -0.133000
     15 C1           2.0030    -0.0280    -6.1160 ca         1 BUN       0.090100
     16 O1           1.3280    -0.0330    -7.2960 oh         1 BUN      -0.508100
     17 C13          3.4060    -0.0120    -3.7130 ca         1 BUN      -0.107000
     18 C14          4.0920    -0.0120    -4.9070 ca         1 BUN      -0.156000
     19 C            3.3990    -0.0280    -6.1100 ca         1 BUN       0.103100
     20 O            4.0800    -0.0280    -7.2850 oh         1 BUN      -0.509100
     21 H3          -0.4110     0.7090     3.0380 ho         1 BUN       0.425000
     22 H4           1.4220     0.0000     4.6280 ha         1 BUN       0.150000
     23 H5           4.1490    -0.8880     5.1440 ho         1 BUN       0.428000
     24 H6           5.1230    -0.0020     2.4720 ha         1 BUN       0.145000
     25 H7           3.8990    -0.0060     0.3420 ha         1 BUN       0.140000
     26 H8           3.0320    -0.0070    -1.2670 ha         1 BUN       0.133000
     27 H9           0.1890    -0.0110    -2.4360 ha         1 BUN       0.157000
     28 H10          0.2270     0.0550    -4.9270 ha         1 BUN       0.150000
     29 H11          0.9330    -0.8790    -7.4280 ho         1 BUN       0.425000
     30 H12          3.9500     0.0010    -2.7760 ha         1 BUN       0.137000
     31 H13          5.1750    -0.0090    -4.9080 ha         1 BUN       0.144000
     32 H14          4.4380     0.8310    -7.4410 ho         1 BUN       0.425000
@<TRIPOS>BOND
     1    20    19 1
     2    18    19 ar
     3    18    17 ar
     4    19    15 ar
     5    17    13 ar
     6    15    16 1
     7    15    14 ar
     8    13    14 ar
     9    13    12 1
    10     9    10 ar
    11     9     7 ar
    12    10     3 ar
    13    11    12 2
    14    11     2 1
    15     8     7 1
    16     7     6 ar
    17     3     2 1
    18     3     4 ar
    19     2     1 2
    20     6     4 ar
    21     4     5 1
    22     5    21 1
    23     6    22 1
    24     8    23 1
    25     9    24 1
    26    10    25 1
    27    11    26 1
    28    12    27 1
    29    14    28 1
    30    16    29 1
    31    17    30 1
    32    18    31 1
    33    20    32 1
@<TRIPOS>SUBSTRUCTURE
     1 BUN         1 TEMP              0 ****  ****    0 ROOT
