@<TRIPOS>MOLECULE
BUN
   32    33     1     0     0
SMALL
bcc


@<TRIPOS>ATOM
      1 O2          1.1890    2.2700   -0.7760 o         1 BUN     -0.525100
      2 C6          1.1910    1.0940   -0.3900 c         1 BUN      0.594900
      3 C7          2.0930    0.6570    0.7000 ca        1 BUN     -0.235600
      4 C12         1.7700   -0.3490    1.6300 ca        1 BUN      0.209100
      5 O4          0.5350   -0.9430    1.5410 oh        1 BUN     -0.493100
      6 C11         2.6760   -0.7240    2.6360 ca        1 BUN     -0.318000
      7 C10         3.9150   -0.0790    2.7060 ca        1 BUN      0.188100
      8 O3          4.8560   -0.3930    3.6520 oh        1 BUN     -0.488100
      9 C9          4.2540    0.9410    1.7960 ca        1 BUN     -0.201000
     10 C8          3.3390    1.2960    0.8180 ca        1 BUN     -0.024000
     11 C5          0.3050    0.0690   -0.9700 ce        1 BUN     -0.218200
     12 C4          0.4260   -0.5290   -2.1590 cf        1 BUN     -0.067200
     13 C3          1.4630   -0.3370   -3.1620 ca        1 BUN     -0.058800
     14 C2          1.1390   -0.5890   -4.5050 ca        1 BUN     -0.120000
     15 C1          2.1080   -0.4310   -5.4990 ca        1 BUN      0.109100
     16 O1          1.7320   -0.6920   -6.7960 oh        1 BUN     -0.495100
     17 C13         2.7630    0.0610   -2.8290 ca        1 BUN     -0.111000
     18 C14         3.7380    0.2170   -3.8110 ca        1 BUN     -0.170000
     19 C           3.4150   -0.0260   -5.1480 ca        1 BUN      0.047100
     20 O           4.3150    0.0990   -6.1860 oh        1 BUN     -0.516100
     21 H3          0.4570   -1.5920    2.2570 ho        1 BUN      0.426000
     22 H4          2.4120   -1.5110    3.3550 ha        1 BUN      0.140000
     23 H5          4.5010   -1.0970    4.2140 ho        1 BUN      0.424000
     24 H6          5.2290    1.4390    1.8790 ha        1 BUN      0.159000
     25 H7          3.5780    2.1070    0.1070 ha        1 BUN      0.158000
     26 H8         -0.5370   -0.1950   -0.3020 ha        1 BUN      0.160000
     27 H9         -0.3470   -1.2660   -2.4530 ha        1 BUN      0.130000
     28 H10         0.1250   -0.9040   -4.7930 ha        1 BUN      0.154000
     29 H11         2.4920   -0.5060   -7.3700 ho        1 BUN      0.437000
     30 H12         3.0250    0.2550   -1.7760 ha        1 BUN      0.139000
     31 H13         4.7550    0.5310   -3.5390 ha        1 BUN      0.136000
     32 H14         5.1430    0.4420   -5.8200 ho        1 BUN      0.430000
@<TRIPOS>BOND
     1    1    2 2   
     2    2    3 1   
     3    2   11 1   
     4    3    4 ar  
     5    3   10 ar  
     6    4    5 1   
     7    4    6 ar  
     8    5   21 1   
     9    6    7 ar  
    10    6   22 1   
    11    7    8 1   
    12    7    9 ar  
    13    8   23 1   
    14    9   10 ar  
    15    9   24 1   
    16   10   25 1   
    17   11   12 2   
    18   11   26 1   
    19   12   13 1   
    20   12   27 1   
    21   13   14 ar  
    22   13   17 ar  
    23   14   15 ar  
    24   14   28 1   
    25   15   16 1   
    26   15   19 ar  
    27   16   29 1   
    28   17   18 ar  
    29   17   30 1   
    30   18   19 ar  
    31   18   31 1   
    32   19   20 1   
    33   20   32 1   
@<TRIPOS>SUBSTRUCTURE
     1 BUN         1 TEMP              0 ****  ****    0 ROOT
