@<TRIPOS>MOLECULE
molecule
   12    11     1     0     0
SMALL
bcc


@<TRIPOS>ATOM
      1 O1           0.0000     0.0000     0.0000 o          1 BUO      -0.492100
      2 C1           1.2080     0.0000     0.0000 c          1 BUO       0.470100
      3 C4           1.9620     0.0000     1.3040 c3         1 BUO      -0.185600
      4 C2           1.9500    -0.0060    -1.2890 c          1 BUO       0.470100
      5 C3           1.1960    -0.0130    -2.5930 c3         1 BUO      -0.185600
      6 O2           3.1580    -0.0070    -1.2890 o          1 BUO      -0.492100
      7 H1           2.5880     0.8820     1.3590 hc         1 BUO       0.069033
      8 H2           2.5820    -0.8870     1.3630 hc         1 BUO       0.069033
      9 H3           1.2590     0.0040     2.1280 hc         1 BUO       0.069033
     10 H4           0.5740    -0.8980    -2.6450 hc         1 BUO       0.069033
     11 H5           0.5730     0.8710    -2.6540 hc         1 BUO       0.069033
     12 H6           1.8990    -0.0170    -3.4170 hc         1 BUO       0.069033
@<TRIPOS>BOND
     1     5     4 1
     2     6     4 2
     3     4     2 1
     4     1     2 2
     5     2     3 1
     6     3     7 1
     7     3     8 1
     8     3     9 1
     9     5    10 1
    10     5    11 1
    11     5    12 1
@<TRIPOS>SUBSTRUCTURE
     1 BUO         1 TEMP              0 ****  ****    0 ROOT
