@<TRIPOS>MOLECULE
molecule
   40    41     1     0     0
SMALL
bcc


@<TRIPOS>ATOM
      1 Br           0.0000     0.0000     0.0000 br         1 BUP      -0.128700
      2 C1           1.8900     0.0000     0.0000 cc         1 BUP      -0.282500
      3 N1           3.9560    -0.0000    -1.1960 ns         1 BUP      -0.567500
      4 P1           9.2470     3.6100     2.5820 p5         1 BUP       1.440800
      5 C2           2.5750     0.0000     1.1640 cd         1 BUP      -0.061400
      6 N2           3.9440    -0.0010     1.1460 n          1 BUP      -0.328000
      7 P2           9.8010     6.4990     2.9450 p5         1 BUP       1.512800
      8 C3           4.6140    -0.0010    -0.0220 c          1 BUP       0.800500
      9 O3           5.6370     1.0860     2.4390 os         1 BUP      -0.346600
     10 P3           9.3780     9.0370     4.4160 p5         1 BUP       1.337900
     11 C4           2.6080    -0.0050    -1.2220 c          1 BUP       0.708700
     12 O4           4.8440    -2.3620     3.0630 oh         1 BUP      -0.598800
     13 C5           6.6840    -0.7980     3.4950 c3         1 BUP       0.088100
     14 O5           6.3930    -1.2350     4.8240 oh         1 BUP      -0.595800
     15 C6           5.5790    -1.2640     2.5160 c3         1 BUP       0.073100
     16 O6           7.9790     2.7070     2.9900 os         1 BUP      -0.586200
     17 C7           4.6870    -0.0000     2.4080 c3         1 BUP       0.316500
     18 O7           8.9090     5.1610     2.8470 os         1 BUP      -0.723800
     19 C8           6.6380     0.7400     3.4120 c3         1 BUP       0.120100
     20 O8           9.5810     3.3920     1.0230 o          1 BUP      -0.854000
     21 C9           8.0000     1.2780     2.9690 c3         1 BUP       0.236400
     22 O9          10.4180     3.2130     3.3960 o          1 BUP      -0.854000
     23 O10          8.9760     7.6360     3.7310 os         1 BUP      -0.735800
     24 O11         10.1510     7.0200     1.4620 o          1 BUP      -0.866000
     25 O12         11.0540     6.2050     3.6740 o          1 BUP      -0.866000
     26 O13          9.5040    10.1720     3.2810 o          1 BUP      -0.832500
     27 O14          8.2430     9.4610     5.4760 o          1 BUP      -0.832500
     28 O15         10.6740     8.8910     5.1140 o          1 BUP      -0.832500
     29 HN1          4.4710    -0.0020    -2.0540 hn         1 BUP       0.345500
     30 H2           2.0430     0.0000     2.1080 h4         1 BUP       0.148000
     31 HO4          5.0760    -3.1530     2.6070 ho         1 BUP       0.381000
     32 H5           7.6510    -1.1640     3.1720 h1         1 BUP       0.051700
     33 HO5          7.1170    -1.7400     5.1550 ho         1 BUP       0.386000
     34 H6           6.0030    -1.5170     1.5520 h1         1 BUP       0.081700
     35 H7           4.0130     0.0620     3.2540 h2         1 BUP       0.075700
     36 H8           6.3690     1.1520     4.3770 h1         1 BUP       0.073700
     37 H9           8.2140     0.9350     1.9640 h1         1 BUP       0.030200
     38 H9A          8.7670     0.9180     3.6440 h1         1 BUP       0.030200
     39 O1           2.0130    -0.0100    -2.2840 o          1 BUP      -0.707500
     40 O2           5.8290     0.0040    -0.0150 o          1 BUP      -0.634500
@<TRIPOS>BOND
     1     1     2 1
     2     2     5 2
     3     2    11 1
     4     3     8 1
     5     3    11 1
     6    39    11 2
     7     4    16 1
     8     4    18 1
     9     4    20 1
    10     4    22 1
    11     5     6 1
    12     6     8 1
    13     6    17 1
    14    40     8 2
    15     7    18 1
    16     7    23 1
    17     7    24 1
    18     7    25 1
    19     9    17 1
    20     9    19 1
    21    10    23 1
    22    10    26 1
    23    10    27 1
    24    10    28 1
    25    12    15 1
    26    13    14 1
    27    13    15 1
    28    13    19 1
    29    15    17 1
    30    16    21 1
    31    19    21 1
    32     3    29 1
    33     5    30 1
    34    12    31 1
    35    13    32 1
    36    14    33 1
    37    15    34 1
    38    17    35 1
    39    19    36 1
    40    21    37 1
    41    21    38 1
@<TRIPOS>SUBSTRUCTURE
     1 BUP         1 TEMP              0 ****  ****    0 ROOT
