@<TRIPOS>MOLECULE
molecule
   14    13     1     0     0
SMALL
bcc


@<TRIPOS>ATOM
      1 C1           0.0000     0.0000     0.0000 c3         1 BUQ      -0.194100
      2 C2           1.5060     0.0000     0.0000 c          1 BUQ       0.563100
      3 O2           2.1090     0.0000     1.0470 o          1 BUQ      -0.530100
      4 C3           2.2600    -0.0000    -1.3030 c3         1 BUQ      -0.183400
      5 C4           3.7640     0.0000    -1.0230 c3         1 BUQ       0.149400
      6 O5           4.4790    -0.0000    -2.2600 oh         1 BUQ      -0.618800
      7 H11         -0.3610     0.8850    -0.5110 hc         1 BUQ       0.062367
      8 H12         -0.3610     0.0000     1.0210 hc         1 BUQ       0.062367
      9 H13         -0.3610    -0.8850    -0.5110 hc         1 BUQ       0.062367
     10 H31          1.9980    -0.8840    -1.8710 hc         1 BUQ       0.076700
     11 H32          1.9980     0.8840    -1.8710 hc         1 BUQ       0.076700
     12 H41          4.0260     0.8840    -0.4550 h1         1 BUQ       0.033700
     13 H42          4.0260    -0.8840    -0.4550 h1         1 BUQ       0.033700
     14 HO51         5.4060    -0.0000    -2.0870 ho         1 BUQ       0.407000
@<TRIPOS>BOND
     1     1     2 1
     2     1     7 1
     3     1     8 1
     4     1     9 1
     5     2     3 2
     6     2     4 1
     7     4     5 1
     8     4    10 1
     9     4    11 1
    10     5     6 1
    11     5    12 1
    12     5    13 1
    13     6    14 1
@<TRIPOS>SUBSTRUCTURE
     1 BUQ         1 TEMP              0 ****  ****    0 ROOT
