@<TRIPOS>MOLECULE
BUR
   54    56     1     0     0
SMALL
bcc


@<TRIPOS>ATOM
      1 FAE          0.0000     0.0000     0.0000 f          1 BUR      -0.197967
      2 CBF          1.3990     0.0000     0.0000 c3         1 BUR       0.754700
      3 FAF          1.8660     0.0000     1.3190 f          1 BUR      -0.197967
      4 FAG          1.8660    -1.1430    -0.6580 f          1 BUR      -0.197967
      5 OAW          1.8760     1.1660    -0.6740 os         1 BUR      -0.312900
      6 CAZ          1.5100     2.3700    -0.1580 ca         1 BUR       0.122100
      7 CAQ          1.9390     3.5430    -0.7630 ca         1 BUR      -0.140000
      8 CAO          1.5680     4.7650    -0.2390 ca         1 BUR      -0.076000
      9 CAR          0.7050     2.4250     0.9710 ca         1 BUR      -0.140000
     10 CAP          0.3290     3.6470     1.4920 ca         1 BUR      -0.076000
     11 CAY          0.7670     4.8210     0.8930 ca         1 BUR      -0.101400
     12 NAT          0.3860     6.0620     1.4210 ns         1 BUR      -0.046100
     13 CAX          1.2430     7.1010     1.3870 c          1 BUR       0.553100
     14 OAD          2.3070     6.9930     0.8080 o          1 BUR      -0.695100
     15 NAU          0.9220     8.2610     1.9940 ns         1 BUR      -0.028100
     16 CBA          1.7590     9.3760     1.8640 ca         1 BUR      -0.222700
     17 CAL          3.1320     9.2140     1.7160 ca         1 BUR      -0.048000
     18 CAJ          3.9210    10.3480     1.5900 ca         1 BUR      -0.243300
     19 CAK          3.3250    11.5940     1.6140 ca         1 BUR       0.425200
     20 NAS          2.0190    11.7190     1.7550 nb         1 BUR      -0.631000
     21 CBC          1.2290    10.6660     1.8730 ca         1 BUR       0.588600
     22 OAV         -0.1100    10.8420     2.0160 os         1 BUR      -0.354400
     23 CBB         -0.6000    12.1070     1.9310 ca         1 BUR       0.121100
     24 CAM         -0.4910    12.9690     3.0140 ca         1 BUR      -0.102000
     25 CAH         -0.9900    14.2540     2.9240 ca         1 BUR      -0.094000
     26 CAI         -1.5970    14.6810     1.7570 ca         1 BUR      -0.099000
     27 CAN         -1.7070    13.8250     0.6780 ca         1 BUR      -0.103000
     28 CBD         -1.2060    12.5400     0.7610 ca         1 BUR      -0.079300
     29 CBE         -1.3200    11.6080    -0.4180 c3         1 BUR      -0.004700
     30 CAC         -2.0280    10.3230     0.0140 c3         1 BUR      -0.004767
     31 CAA         -2.1270    12.2860    -1.5280 c3         1 BUR      -0.004767
     32 CAB          0.0780    11.2700    -0.9400 c3         1 BUR      -0.004767
     33 H1           2.5640     3.4990    -1.6460 ha         1 BUR       0.126000
     34 H2           1.9060     5.6810    -0.7090 ha         1 BUR       0.131000
     35 H3           0.3640     1.5080     1.4370 ha         1 BUR       0.126000
     36 H4          -0.2980     3.6890     2.3740 ha         1 BUR       0.131000
     37 H5          -0.5280     6.1810     1.8110 hn         1 BUR       0.164500
     38 H6           0.1090     8.3120     2.5760 hn         1 BUR       0.170500
     39 H7           3.5750     8.2260     1.7010 ha         1 BUR       0.163000
     40 H8           4.9940    10.2580     1.4740 ha         1 BUR       0.118000
     41 H9           3.9390    12.4810     1.5180 h4         1 BUR      -0.019900
     42 H10         -0.0160    12.6340     3.9280 ha         1 BUR       0.111000
     43 H11         -0.9050    14.9270     3.7680 ha         1 BUR       0.103000
     44 H12         -1.9890    15.6890     1.6900 ha         1 BUR       0.102000
     45 H13         -2.1820    14.1630    -0.2350 ha         1 BUR       0.121000
     46 H14         -2.6280    10.5200     0.8940 hc         1 BUR       0.010367
     47 H15         -2.6680     9.9760    -0.7880 hc         1 BUR       0.010367
     48 H16         -1.2900     9.5630     0.2420 hc         1 BUR       0.010367
     49 H17         -2.2610    11.5950    -2.3510 hc         1 BUR       0.010367
     50 H18         -3.0960    12.5800    -1.1420 hc         1 BUR       0.010367
     51 H19         -1.5960    13.1640    -1.8760 hc         1 BUR       0.010367
     52 H20          0.7350    12.1180    -0.7880 hc         1 BUR       0.010367
     53 H21          0.0240    11.0410    -1.9980 hc         1 BUR       0.010367
     54 H22          0.4660    10.4120    -0.4050 hc         1 BUR       0.010367
@<TRIPOS>BOND
     1     1     2 1   
     2     2     3 1   
     3     2     4 1   
     4     2     5 1   
     5     5     6 1   
     6     6     7 ar  
     7     6     9 ar  
     8     7     8 ar  
     9     7    33 1   
    10     8    11 ar  
    11     8    34 1   
    12     9    10 ar  
    13     9    35 1   
    14    10    11 ar  
    15    10    36 1   
    16    11    12 1   
    17    12    13 1   
    18    12    37 1   
    19    13    14 2   
    20    13    15 1   
    21    15    16 1   
    22    15    38 1   
    23    16    17 ar  
    24    16    21 ar  
    25    17    18 ar  
    26    17    39 1   
    27    18    19 ar  
    28    18    40 1   
    29    19    20 ar  
    30    19    41 1   
    31    20    21 ar  
    32    21    22 1   
    33    22    23 1   
    34    23    24 ar  
    35    23    28 ar  
    36    24    25 ar  
    37    24    42 1   
    38    25    26 ar  
    39    25    43 1   
    40    26    27 ar  
    41    26    44 1   
    42    27    28 ar  
    43    27    45 1   
    44    28    29 1   
    45    29    30 1   
    46    29    31 1   
    47    29    32 1   
    48    30    46 1   
    49    30    47 1   
    50    30    48 1   
    51    31    49 1   
    52    31    50 1   
    53    31    51 1   
    54    32    52 1   
    55    32    53 1   
    56    32    54 1   
@<TRIPOS>SUBSTRUCTURE
     1 BUR         1 TEMP              0 ****  ****    0 ROOT
