@<TRIPOS>MOLECULE
molecule
   54    56     1     0     0
SMALL
bcc


@<TRIPOS>ATOM
      1 FAE          0.0000     0.0000     0.0000 f          1 BUR      -0.205967
      2 CBF          1.3990     0.0000     0.0000 c3         1 BUR       0.794700
      3 FAF          1.8660     0.0000     1.3190 f          1 BUR      -0.205967
      4 FAG          1.8660    -1.1430    -0.6580 f          1 BUR      -0.205967
      5 OAW          1.8760     1.1660    -0.6740 os         1 BUR      -0.338900
      6 CAZ          1.5100     2.3700    -0.1580 ca         1 BUR       0.107100
      7 CAQ          1.9390     3.5430    -0.7630 ca         1 BUR      -0.151500
      8 CAO          1.5680     4.7650    -0.2390 ca         1 BUR      -0.110500
      9 CAR          0.7050     2.4250     0.9710 ca         1 BUR      -0.151500
     10 CAP          0.3290     3.6470     1.4920 ca         1 BUR      -0.110500
     11 CAY          0.7670     4.8210     0.8930 ca         1 BUR       0.048600
     12 NAT          0.3860     6.0620     1.4210 ns         1 BUR      -0.487100
     13 CAX          1.2430     7.1010     1.3870 c          1 BUR       0.785100
     14 OAD          2.3070     6.9930     0.8080 o          1 BUR      -0.647100
     15 NAU          0.9220     8.2610     1.9940 ns         1 BUR      -0.475100
     16 CBA          1.7590     9.3760     1.8640 ca         1 BUR      -0.068700
     17 CAL          3.1320     9.2140     1.7160 ca         1 BUR      -0.070000
     18 CAJ          3.9210    10.3480     1.5900 ca         1 BUR      -0.274300
     19 CAK          3.3250    11.5940     1.6140 ca         1 BUR       0.438200
     20 NAS          2.0190    11.7190     1.7550 nb         1 BUR      -0.737000
     21 CBC          1.2290    10.6660     1.8730 ca         1 BUR       0.625600
     22 OAV         -0.1100    10.8420     2.0160 os         1 BUR      -0.370400
     23 CBB         -0.6000    12.1070     1.9310 ca         1 BUR       0.111100
     24 CAM         -0.4910    12.9690     3.0140 ca         1 BUR      -0.118000
     25 CAH         -0.9900    14.2540     2.9240 ca         1 BUR      -0.127000
     26 CAI         -1.5970    14.6810     1.7570 ca         1 BUR      -0.123000
     27 CAN         -1.7070    13.8250     0.6780 ca         1 BUR      -0.125000
     28 CBD         -1.2060    12.5400     0.7610 ca         1 BUR      -0.064300
     29 CBE         -1.3200    11.6080    -0.4180 c3         1 BUR      -0.019700
     30 CAC         -2.0280    10.3230     0.0140 c3         1 BUR      -0.082433
     31 CAA         -2.1270    12.2860    -1.5280 c3         1 BUR      -0.082433
     32 CAB          0.0780    11.2700    -0.9400 c3         1 BUR      -0.082433
     33 H1           2.5640     3.4990    -1.6460 ha         1 BUR       0.152500
     34 H2           1.9060     5.6810    -0.7090 ha         1 BUR       0.158000
     35 H3           0.3640     1.5080     1.4370 ha         1 BUR       0.152500
     36 H4          -0.2980     3.6890     2.3740 ha         1 BUR       0.158000
     37 H5          -0.5280     6.1810     1.8110 hn         1 BUR       0.323500
     38 H6           0.1090     8.3120     2.5760 hn         1 BUR       0.331500
     39 H7           3.5750     8.2260     1.7010 ha         1 BUR       0.187000
     40 H8           4.9940    10.2580     1.4740 ha         1 BUR       0.145000
     41 H9           3.9390    12.4810     1.5180 h4         1 BUR       0.026100
     42 H10         -0.0160    12.6340     3.9280 ha         1 BUR       0.139000
     43 H11         -0.9050    14.9270     3.7680 ha         1 BUR       0.132000
     44 H12         -1.9890    15.6890     1.6900 ha         1 BUR       0.130000
     45 H13         -2.1820    14.1630    -0.2350 ha         1 BUR       0.141000
     46 H14         -2.6280    10.5200     0.8940 hc         1 BUR       0.038478
     47 H15         -2.6680     9.9760    -0.7880 hc         1 BUR       0.038478
     48 H16         -1.2900     9.5630     0.2420 hc         1 BUR       0.038478
     49 H17         -2.2610    11.5950    -2.3510 hc         1 BUR       0.038478
     50 H18         -3.0960    12.5800    -1.1420 hc         1 BUR       0.038478
     51 H19         -1.5960    13.1640    -1.8760 hc         1 BUR       0.038478
     52 H20          0.7350    12.1180    -0.7880 hc         1 BUR       0.038478
     53 H21          0.0240    11.0410    -1.9980 hc         1 BUR       0.038478
     54 H22          0.4660    10.4120    -0.4050 hc         1 BUR       0.038478
@<TRIPOS>BOND
     1    19    18 ar
     2    19    20 ar
     3    18    17 ar
     4    20    21 ar
     5    17    16 ar
     6    25    24 ar
     7    25    26 ar
     8    24    23 ar
     9    21    16 ar
    10    21    22 1
    11    16    15 1
    12    26    27 ar
    13    23    22 1
    14    23    28 ar
    15    15    13 1
    16    14    13 2
    17    27    28 ar
    18    28    29 1
    19    13    12 1
    20    32    29 1
    21    29    31 1
    22    29    30 1
    23    12    11 1
    24    10    11 ar
    25    10     9 ar
    26    11     8 ar
    27     9     6 ar
    28     8     7 ar
    29     4     2 1
    30     6     7 ar
    31     6     5 1
    32     5     2 1
    33     2     1 1
    34     2     3 1
    35     7    33 1
    36     8    34 1
    37     9    35 1
    38    10    36 1
    39    12    37 1
    40    15    38 1
    41    17    39 1
    42    18    40 1
    43    19    41 1
    44    24    42 1
    45    25    43 1
    46    26    44 1
    47    27    45 1
    48    30    46 1
    49    30    47 1
    50    30    48 1
    51    31    49 1
    52    31    50 1
    53    31    51 1
    54    32    52 1
    55    32    53 1
    56    32    54 1
@<TRIPOS>SUBSTRUCTURE
     1 BUR         1 TEMP              0 ****  ****    0 ROOT
