@<TRIPOS>MOLECULE
BUT
   14    13     1     0     0
SMALL
bcc


@<TRIPOS>ATOM
      1 C1          0.0060    0.0000   -0.0010 c3        1 BUT     -0.092100
      2 C2          1.5130   -0.0000    0.0150 c3        1 BUT     -0.080400
      3 C3          2.0560   -0.0000    1.4280 c3        1 BUT     -0.080400
      4 C4          3.5620    0.0000    1.4440 c3        1 BUT     -0.092100
      5 H11        -0.3710    0.0000   -1.0520 hc        1 BUT      0.032367
      6 H12        -0.3930    0.9050    0.5170 hc        1 BUT      0.032367
      7 H13        -0.3930   -0.9050    0.5170 hc        1 BUT      0.032367
      8 H21         1.8960   -0.9020   -0.5310 hc        1 BUT      0.038700
      9 H22         1.8960    0.9020   -0.5310 hc        1 BUT      0.038700
     10 H31         1.6730    0.9020    1.9740 hc        1 BUT      0.038700
     11 H32         1.6730   -0.9020    1.9740 hc        1 BUT      0.038700
     12 H41         3.9400    0.0000    2.4950 hc        1 BUT      0.032367
     13 H42         3.9620   -0.9050    0.9260 hc        1 BUT      0.032367
     14 H43         3.9620    0.9050    0.9260 hc        1 BUT      0.032367
@<TRIPOS>BOND
     1    1    2 1   
     2    1    5 1   
     3    1    6 1   
     4    1    7 1   
     5    2    3 1   
     6    2    8 1   
     7    2    9 1   
     8    3    4 1   
     9    3   10 1   
    10    3   11 1   
    11    4   12 1   
    12    4   13 1   
    13    4   14 1   
@<TRIPOS>SUBSTRUCTURE
     1 BUT         1 TEMP              0 ****  ****    0 ROOT
