@<TRIPOS>MOLECULE
BUU
   40    41     1     0     0
SMALL
bcc


@<TRIPOS>ATOM
      1 O1           0.0000     0.0000     0.0000 o          1 BUU      -0.817800
      2 C            1.2080     0.0000     0.0000 c          1 BUU       0.955600
      3 O            1.8800     0.0000     1.1620 o          1 BUU      -0.817800
      4 C1           1.9620    -0.0060    -1.3050 c3         1 BUU      -0.198500
      5 N            1.0800    -0.4850    -2.3770 nz         1 BUU       0.077400
      6 C2           2.4350     1.4120    -1.6280 c3         1 BUU       0.042900
      7 C3           3.2910     1.3870    -2.8680 ca         1 BUU      -0.119300
      8 C4           2.7100     1.5440    -4.1120 ca         1 BUU      -0.151000
      9 C5           3.4920     1.5220    -5.2510 ca         1 BUU      -0.129000
     10 C6           4.8620     1.3400    -5.1490 ca         1 BUU       0.106100
     11 O2           5.6320     1.3180    -6.2690 oh         1 BUU      -0.476100
     12 C8           4.6580     1.2110    -2.7580 ca         1 BUU      -0.165000
     13 C7           5.4460     1.1810    -3.8970 ca         1 BUU       0.138100
     14 O3           6.7910     1.0030    -3.7910 os         1 BUU      -0.296900
     15 C9           7.3220     0.8470    -2.4730 c3         1 BUU       0.231700
     16 C10          8.8150     0.6620    -2.5530 ca         1 BUU      -0.010300
     17 C15          9.5540     0.4850    -1.3970 ca         1 BUU      -0.448200
     18 N1           8.8760     0.4750    -0.0800 no         1 BUU       1.048200
     19 O4           9.5240     0.3180     0.9370 o          1 BUU      -0.449500
     20 O5           7.6680     0.6250    -0.0160 o          1 BUU      -0.449500
     21 C11          9.4480     0.6650    -3.7820 ca         1 BUU      -0.108000
     22 C12         10.8180     0.4950    -3.8550 ca         1 BUU      -0.036000
     23 C13         11.5560     0.3230    -2.6990 ca         1 BUU      -0.121000
     24 C14         10.9230     0.3150    -1.4690 ca         1 BUU      -0.006000
     25 H1           2.8200    -0.6630    -1.2230 hx         1 BUU       0.089700
     26 HN1          0.4450     0.2440    -2.6380 hn         1 BUU       0.212467
     27 HN2          1.6310    -0.7470    -3.1700 hn         1 BUU       0.212467
     28 H22          3.0130     1.7980    -0.7980 hc         1 BUU       0.057700
     29 H21          1.5750     2.0490    -1.7960 hc         1 BUU       0.057700
     30 H4           1.6390     1.6860    -4.1940 ha         1 BUU       0.098000
     31 H5           3.0330     1.6450    -6.2250 ha         1 BUU       0.116000
     32 HO2          5.4630     2.0910    -6.7820 ho         1 BUU       0.405000
     33 H8           5.1110     1.0870    -1.7820 ha         1 BUU       0.154000
     34 H92          6.8750    -0.0220    -2.0040 h1         1 BUU       0.043700
     35 H91          7.0980     1.7290    -1.8860 h1         1 BUU       0.043700
     36 H11          8.8700     0.8000    -4.6880 ha         1 BUU       0.137000
     37 H12         11.3140     0.4990    -4.8180 ha         1 BUU       0.109000
     38 H13         12.6300     0.1900    -2.7560 ha         1 BUU       0.116000
     39 H14         11.5010     0.1780    -0.5630 ha         1 BUU       0.134000
     40 HN3          0.5550    -1.2720    -2.0510 hn         1 BUU       0.212467
@<TRIPOS>BOND
     1     1     2 1   
     2     2     3 1   
     3     2     4 1   
     4     4     5 1   
     5     4     6 1   
     6     4    25 1   
     7     5    26 1   
     8     5    27 1   
     9     5    40 1   
    10     6     7 1   
    11     6    28 1   
    12     6    29 1   
    13     7     8 ar  
    14     7    12 ar  
    15     8     9 ar  
    16     8    30 1   
    17     9    10 ar  
    18     9    31 1   
    19    10    11 1   
    20    10    13 ar  
    21    11    32 1   
    22    12    13 ar  
    23    12    33 1   
    24    13    14 1   
    25    14    15 1   
    26    15    16 1   
    27    15    34 1   
    28    15    35 1   
    29    16    17 ar  
    30    16    21 ar  
    31    17    18 1   
    32    17    24 ar  
    33    18    19 1   
    34    18    20 1   
    35    21    22 ar  
    36    21    36 1   
    37    22    23 ar  
    38    22    37 1   
    39    23    24 ar  
    40    23    38 1   
    41    24    39 1   
@<TRIPOS>SUBSTRUCTURE
     1 BUU         1 TEMP              0 ****  ****    0 ROOT
