@<TRIPOS>MOLECULE
BUV
   61    67     1     0     0
SMALL
bcc


@<TRIPOS>ATOM
      1 N14          0.0000     0.0000     0.0000 n2         1 BUV      -0.196000
      2 C18         -1.7510     5.5280    -4.1540 c3         1 BUV      -0.066000
      3 C15         -0.3810     3.6860    -3.0440 c3         1 BUV       0.372000
      4 C19         -1.2820     6.5900    -5.1670 c3         1 BUV      -0.041000
      5 C20          0.0900     6.0850    -5.6700 c3         1 BUV      -0.120000
      6 C21          0.0310     4.5670    -5.3650 c3         1 BUV      -0.076000
      7 C22         -3.0360     4.8990    -4.6270 c2         1 BUV       0.168000
      8 C23         -1.1320     7.9280    -4.4910 ca         1 BUV      -0.085000
      9 C24         -1.8780     9.0080    -4.9230 ca         1 BUV      -0.095000
     10 C11          1.7600     0.0000     1.3050 c2         1 BUV      -0.248000
     11 C34         -7.6470     4.0210    -6.0880 ca         1 BUV      -0.084000
     12 C27         -0.1100     9.3030    -2.8180 ca         1 BUV      -0.098000
     13 C33         -6.4370     3.8870    -6.7750 ca         1 BUV      -0.056500
     14 Cl1          5.0090    -0.0150    -4.6900 cl         1 BUV       0.066000
     15 C2           3.2950    -0.9140    -1.1920 c2         1 BUV      -0.034000
     16 C3           4.1340    -0.9130    -2.2900 c2         1 BUV      -0.148000
     17 C4           3.9450    -0.0030    -3.3170 c2         1 BUV      -0.058000
     18 C5           2.9180     0.9150    -3.2540 c2         1 BUV      -0.166000
     19 C6           2.0600     0.9250    -2.1490 c3         1 BUV       0.074000
     20 C7           2.2560    -0.0000    -1.1110 c2         1 BUV      -0.196000
     21 N8           1.4050     0.0000     0.0000 na         1 BUV       0.340000
     22 C10          0.7130     2.7170    -3.1180 c2         1 BUV      -0.128000
     23 N12          0.6570     0.0010     2.0060 n2         1 BUV      -0.131000
     24 N13         -0.3700     0.0000     1.2350 n2         1 BUV       0.030000
     25 O16         -1.0660     3.7550    -2.0410 o          1 BUV      -0.415000
     26 N17         -0.6890     4.5080    -4.0720 n3         1 BUV      -0.000000
     27 C25         -1.7390    10.2360    -4.3030 ca         1 BUV      -0.098000
     28 C26         -0.8550    10.3840    -3.2510 ca         1 BUV      -0.103000
     29 C28         -0.2520     8.0740    -3.4350 ca         1 BUV      -0.095000
     30 O29         -3.0150     3.8220    -5.1820 o          1 BUV      -0.379000
     31 N30         -4.2090     5.5360    -4.4330 ns         1 BUV       0.178000
     32 C31         -5.3110     5.0370    -4.9980 ca         1 BUV      -0.149000
     33 C32         -5.2790     4.3930    -6.2300 ca         1 BUV      -0.153500
     34 C35         -7.6770     4.6750    -4.8520 ca         1 BUV      -0.056500
     35 C36         -6.5140     5.1770    -4.3130 ca         1 BUV      -0.153500
     36 O38         -9.9430     3.6020    -6.0710 o          1 BUV      -0.620000
     37 O39         -8.8600     2.8520    -7.8590 o          1 BUV      -0.620000
     38 H46         -1.8950     5.9870    -3.1830 h1         1 BUV       0.099000
     39 H47         -1.9820     6.6550    -5.9910 hc         1 BUV       0.094000
     40 H48          0.8950     6.5550    -5.1190 hc         1 BUV       0.067000
     41 H49          0.1920     6.2560    -6.7350 hc         1 BUV       0.067000
     42 H51          1.0300     4.1610    -5.2620 h1         1 BUV       0.073500
     43 H50         -0.5250     4.0450    -6.1340 h1         1 BUV       0.073500
     44 H52         -2.5710     8.8930    -5.7480 ha         1 BUV       0.110000
     45 H45          2.7700    -0.0010     1.6960 h5         1 BUV       0.168000
     46 H55          0.5820     9.4180    -1.9920 ha         1 BUV       0.102500
     47 H59         -6.4110     3.3830    -7.7340 ha         1 BUV       0.126000
     48 H40          3.4500    -1.6290    -0.3930 ha         1 BUV       0.112000
     49 H41          4.9450    -1.6300    -2.3480 ha         1 BUV       0.122000
     50 H42          2.7740     1.6240    -4.0600 ha         1 BUV       0.140000
     51 H43          2.0070     2.1460    -1.9410 DU         1 BUV       0.043000
     52 H44          0.7640     3.6570    -2.5820 DU         1 BUV       0.034000
     53 H53         -2.3240    11.0830    -4.6420 ha         1 BUV       0.102500
     54 H54         -0.7460    11.3470    -2.7670 ha         1 BUV       0.101000
     55 H56          0.3320     7.2270    -3.0960 ha         1 BUV       0.110000
     56 H57         -4.2420     6.3650    -3.8740 hn         1 BUV       0.068000
     57 H58         -4.3410     4.2890    -6.7620 ha         1 BUV       0.100500
     58 H60         -8.6130     4.7820    -4.3170 ha         1 BUV       0.126000
     59 H61         -6.5350     5.6790    -3.3530 ha         1 BUV       0.100500
     60 C9           0.9610     1.8990    -2.0750 c2         1 BUV       0.077000
     61 C37         -8.8910     3.4810    -6.6670 c2         1 BUV       0.422000
@<TRIPOS>BOND
     1     1    21 1   
     2     1    24 1   
     3     2     4 1   
     4     2     7 1   
     5     2    26 1   
     6     2    38 1   
     7     3    22 1   
     8     3    25 1   
     9     3    26 1   
    10     3    52 1   
    11     4     5 1   
    12     4     8 1   
    13     4    39 1   
    14     5     6 1   
    15     5    40 1   
    16     5    41 1   
    17     6    26 1   
    18     6    42 1   
    19     6    43 1   
    20     7    30 1   
    21     7    31 1   
    22     8     9 1   
    23     8    29 1   
    24     9    27 1   
    25     9    44 1   
    26    10    21 1   
    27    10    23 1   
    28    10    45 1   
    29    11    13 1   
    30    11    34 1   
    31    11    61 1   
    32    12    28 1   
    33    12    29 1   
    34    12    46 1   
    35    13    33 1   
    36    13    47 1   
    37    14    17 1   
    38    15    16 1   
    39    15    20 1   
    40    15    48 1   
    41    16    17 1   
    42    16    49 1   
    43    17    18 1   
    44    18    19 1   
    45    18    50 1   
    46    19    20 1   
    47    19    51 1   
    48    19    60 1   
    49    20    21 1   
    50    22    52 1   
    51    22    60 1   
    52    23    24 1   
    53    27    28 1   
    54    27    53 1   
    55    28    54 1   
    56    29    55 1   
    57    31    32 1   
    58    31    56 1   
    59    32    33 1   
    60    32    35 1   
    61    33    57 1   
    62    34    35 1   
    63    34    58 1   
    64    35    59 1   
    65    36    61 1   
    66    37    61 1   
    67    51    60 1   
@<TRIPOS>SUBSTRUCTURE
     1 BUV         1 TEMP              0 ****  ****    0 ROOT
