@<TRIPOS>MOLECULE
molecule
   61    65     1     0     0
SMALL
bcc


@<TRIPOS>ATOM
      1 N14          0.0000     0.0000     0.0000 nc         1 BUV      -0.184800
      2 C18         -1.7510     5.5280    -4.1540 c3         1 BUV       0.046700
      3 C15         -0.3810     3.6860    -3.0440 c          1 BUV       0.684300
      4 C19         -1.2820     6.5900    -5.1670 c3         1 BUV      -0.031400
      5 C20          0.0900     6.0850    -5.6700 c3         1 BUV      -0.092400
      6 C21          0.0310     4.5670    -5.3650 c3         1 BUV       0.086000
      7 C22         -3.0360     4.8990    -4.6270 c          1 BUV       0.636100
      8 C23         -1.1320     7.9280    -4.4910 ca         1 BUV      -0.084300
      9 C24         -1.8780     9.0080    -4.9230 ca         1 BUV      -0.120000
     10 C11          1.7600     0.0000     1.3050 cd         1 BUV       0.406400
     11 C34         -7.6470     4.0210    -6.0880 ca         1 BUV      -0.112600
     12 C27         -0.1100     9.3030    -2.8180 ca         1 BUV      -0.128000
     13 C33         -6.4370     3.8870    -6.7750 ca         1 BUV      -0.084500
     14 Cl1          5.0090    -0.0150    -4.6900 cl         1 BUV      -0.096400
     15 C2           3.2950    -0.9140    -1.1920 ca         1 BUV      -0.119000
     16 C3           4.1340    -0.9130    -2.2900 ca         1 BUV      -0.114000
     17 C4           3.9450    -0.0030    -3.3170 ca         1 BUV       0.037400
     18 C5           2.9180     0.9150    -3.2540 ca         1 BUV      -0.106000
     19 C6           2.0600     0.9250    -2.1490 ca         1 BUV      -0.026800
     20 C7           2.2560    -0.0000    -1.1110 ca         1 BUV       0.013800
     21 N8           1.4050     0.0000     0.0000 na         1 BUV      -0.010500
     22 C10          0.7130     2.7170    -3.1180 cf         1 BUV      -0.195200
     23 N12          0.6570     0.0010     2.0060 nc         1 BUV      -0.412000
     24 N13         -0.3700     0.0000     1.2350 nc         1 BUV       0.003000
     25 O16         -1.0660     3.7550    -2.0410 o          1 BUV      -0.599100
     26 N17         -0.6890     4.5080    -4.0720 n          1 BUV      -0.469800
     27 C25         -1.7390    10.2360    -4.3030 ca         1 BUV      -0.128000
     28 C26         -0.8550    10.3840    -3.2510 ca         1 BUV      -0.131000
     29 C28         -0.2520     8.0740    -3.4350 ca         1 BUV      -0.120000
     30 O29         -3.0150     3.8220    -5.1820 o          1 BUV      -0.574100
     31 N30         -4.2090     5.5360    -4.4330 ns         1 BUV      -0.444100
     32 C31         -5.3110     5.0370    -4.9980 ca         1 BUV       0.009600
     33 C32         -5.2790     4.3930    -6.2300 ca         1 BUV      -0.178000
     34 C35         -7.6770     4.6750    -4.8520 ca         1 BUV      -0.084500
     35 C36         -6.5140     5.1770    -4.3130 ca         1 BUV      -0.178000
     36 O38         -9.9430     3.6020    -6.0710 o          1 BUV      -0.839800
     37 O39         -8.8600     2.8520    -7.8590 o          1 BUV      -0.839800
     38 H46         -1.8950     5.9870    -3.1830 h1         1 BUV       0.087700
     39 H47         -1.9820     6.6550    -5.9910 hc         1 BUV       0.082700
     40 H48          0.1920     6.2560    -6.7350 hc         1 BUV       0.056200
     41 H49          0.8950     6.5550    -5.1190 hc         1 BUV       0.056200
     42 H51         -0.5240     4.0450    -6.1340 h1         1 BUV       0.057700
     43 H50          1.0300     4.1610    -5.2620 h1         1 BUV       0.057700
     44 H52         -2.5710     8.8930    -5.7480 ha         1 BUV       0.138000
     45 H45          2.7700    -0.0010     1.6960 h5         1 BUV       0.078100
     46 H55          0.5820     9.4180    -1.9920 ha         1 BUV       0.128500
     47 H59         -6.4110     3.3830    -7.7340 ha         1 BUV       0.152000
     48 H40          3.4500    -1.6290    -0.3930 ha         1 BUV       0.147000
     49 H41          4.9450    -1.6300    -2.3480 ha         1 BUV       0.152000
     50 H42          2.7740     1.6240    -4.0600 ha         1 BUV       0.160000
     51 H43          0.3500     1.9580    -1.1820 ha         1 BUV       0.181000
     52 H44          1.3240     2.6570    -4.0110 ha         1 BUV       0.128000
     53 H53         -2.3240    11.0830    -4.6420 ha         1 BUV       0.128500
     54 H54         -0.7460    11.3470    -2.7670 ha         1 BUV       0.126000
     55 H56          0.3320     7.2270    -3.0960 ha         1 BUV       0.138000
     56 H57         -4.2420     6.3650    -3.8740 hn         1 BUV       0.316500
     57 H58         -4.3410     4.2890    -6.7620 ha         1 BUV       0.116000
     58 H60         -8.6130     4.7820    -4.3170 ha         1 BUV       0.152000
     59 H61         -6.5350     5.6790    -3.3530 ha         1 BUV       0.116000
     60 C9           0.9610     1.8990    -2.0750 ce         1 BUV      -0.056200
     61 C37         -8.8910     3.4810    -6.6670 c          1 BUV       0.883200
@<TRIPOS>BOND
     1    23    10 2
     2    23    24 1
     3    10    21 1
     4    24     1 2
     5    21     1 1
     6    21    20 1
     7    15    20 ar
     8    15    16 ar
     9    20    19 ar
    10     6     5 1
    11     6    26 1
    12     5     4 1
    13    29    12 ar
    14    29     8 ar
    15    16    17 ar
    16    30     7 2
    17     4     8 1
    18     4     2 1
    19    19    60 1
    20    19    18 ar
    21    12    28 ar
    22    26     2 1
    23    26     3 1
    24    60    22 2
    25    22     3 1
    26     8     9 ar
    27    17    18 ar
    28    17    14 1
    29     7     2 1
    30     7    31 1
    31     3    25 2
    32    33    13 ar
    33    33    32 ar
    34    28    27 ar
    35    13    11 ar
    36     9    27 ar
    37    31    32 1
    38    32    35 ar
    39    37    61 1
    40    11    61 1
    41    11    34 ar
    42    61    36 1
    43    35    34 ar
    44     2    38 1
    45     4    39 1
    46     5    40 1
    47     5    41 1
    48     6    42 1
    49     6    43 1
    50     9    44 1
    51    10    45 1
    52    12    46 1
    53    13    47 1
    54    15    48 1
    55    16    49 1
    56    18    50 1
    57    60    51 1
    58    22    52 1
    59    27    53 1
    60    28    54 1
    61    29    55 1
    62    31    56 1
    63    33    57 1
    64    34    58 1
    65    35    59 1
@<TRIPOS>SUBSTRUCTURE
     1 BUV         1 TEMP              0 ****  ****    0 ROOT
