@<TRIPOS>MOLECULE
BUW
   46    48     1     0     0
SMALL
bcc


@<TRIPOS>ATOM
      1 C01          0.0000     0.0000     0.0000 ca         1 BUW      -0.052800
      2 C02          1.3920     0.0000     0.0000 ca         1 BUW      -0.204000
      3 C03          2.0900     0.0000     1.1920 ca         1 BUW      -0.056000
      4 C04          1.4090     0.0000     2.3950 ca         1 BUW      -0.133000
      5 C05          0.0280    -0.0030     2.4070 ca         1 BUW      -0.032500
      6 C06         -0.6820     0.0010     1.2130 ca         1 BUW       0.052400
      7 C08         -2.8850    -0.5240    -0.3710 ca         1 BUW       0.052400
      8 C09         -4.1680    -1.0010    -0.6030 ca         1 BUW      -0.032500
      9 C10         -4.5320    -1.4290    -1.8670 ca         1 BUW      -0.133000
     10 C11         -3.6190    -1.3810    -2.9030 ca         1 BUW      -0.056000
     11 C12         -2.3400    -0.9070    -2.6800 ca         1 BUW      -0.204000
     12 C13         -1.9650    -0.4730    -1.4100 ca         1 BUW      -0.052800
     13 N14         -0.6700     0.0060    -1.2200 na         1 BUW       0.223900
     14 S07         -2.4410    -0.0140     1.2550 ss         1 BUW      -0.358800
     15 C15          0.0320     0.5530    -2.3830 c3         1 BUW      -0.084700
     16 C16          0.9850    -0.5020    -2.9470 c3         1 BUW       0.079500
     17 C17          0.1750    -1.6690    -3.5140 c3         1 BUW      -0.028100
     18 C20          1.8020     1.1420    -6.2280 c3         1 BUW      -0.004600
     19 C22          3.9380     0.2400    -2.8310 c3         1 BUW      -0.004600
     20 N18          1.7990     0.0930    -4.0150 n3         1 BUW      -0.529600
     21 H1           1.9310    -0.0000    -0.9400 ha         1 BUW       0.148500
     22 H2           3.1730     0.0020     1.1840 ha         1 BUW       0.101500
     23 H3           1.9590     0.0000     3.3290 ha         1 BUW       0.108000
     24 H4          -0.5040    -0.0030     3.3510 ha         1 BUW       0.115000
     25 H5          -4.8840    -1.0390     0.2080 ha         1 BUW       0.115000
     26 H6          -5.5340    -1.8010    -2.0450 ha         1 BUW       0.108000
     27 H7          -3.9060    -1.7160    -3.8920 ha         1 BUW       0.101500
     28 H8          -1.6280    -0.8710    -3.4950 ha         1 BUW       0.148500
     29 H9          -0.6890     0.8310    -3.1420 h1         1 BUW       0.046700
     30 H10          0.5970     1.4280    -2.0850 h1         1 BUW       0.046700
     31 H11          1.6330    -0.8620    -2.1570 h1         1 BUW       0.066700
     32 H12          0.8460    -2.3850    -3.9740 hc         1 BUW       0.024367
     33 H13         -0.5210    -1.2990    -4.2570 hc         1 BUW       0.024367
     34 H14         -0.3730    -2.1510    -2.7140 hc         1 BUW       0.024367
     35 H15          0.1660     0.0780    -5.3290 h1         1 BUW       0.014700
     36 H16          0.5120     1.6450    -4.5850 h1         1 BUW       0.014700
     37 H17          2.6490     0.4710    -6.3040 hc         1 BUW       0.009033
     38 H18          1.1850     1.0460    -7.1130 hc         1 BUW       0.009033
     39 H19          2.1560     2.1620    -6.1430 hc         1 BUW       0.009033
     40 H20          3.1820     1.6910    -4.2240 h1         1 BUW       0.014700
     41 H21          2.2880     1.6100    -2.7000 h1         1 BUW       0.014700
     42 H22          3.7750    -0.8210    -2.9820 hc         1 BUW       0.009033
     43 H23          4.0280     0.4440    -1.7710 hc         1 BUW       0.009033
     44 H24          4.8490     0.5400    -3.3350 hc         1 BUW       0.009033
     45 C19          0.9520     0.7550    -5.0170 c3         1 BUW       0.131800
     46 C21          2.7890     1.0270    -3.4630 c3         1 BUW       0.131800
@<TRIPOS>BOND
     1     1     2 ar  
     2     1     6 ar  
     3     1    13 1   
     4     2     3 ar  
     5     2    21 1   
     6     3     4 ar  
     7     3    22 1   
     8     4     5 ar  
     9     4    23 1   
    10     5     6 ar  
    11     5    24 1   
    12     6    14 1   
    13     7     8 ar  
    14     7    12 ar  
    15     7    14 1   
    16     8     9 ar  
    17     8    25 1   
    18     9    10 ar  
    19     9    26 1   
    20    10    11 ar  
    21    10    27 1   
    22    11    12 ar  
    23    11    28 1   
    24    12    13 1   
    25    13    15 1   
    26    15    16 1   
    27    15    29 1   
    28    15    30 1   
    29    16    17 1   
    30    16    20 1   
    31    16    31 1   
    32    17    32 1   
    33    17    33 1   
    34    17    34 1   
    35    18    37 1   
    36    18    38 1   
    37    18    39 1   
    38    18    45 1   
    39    19    42 1   
    40    19    43 1   
    41    19    44 1   
    42    19    46 1   
    43    20    45 1   
    44    20    46 1   
    45    35    45 1   
    46    36    45 1   
    47    40    46 1   
    48    41    46 1   
@<TRIPOS>SUBSTRUCTURE
     1 BUW         1 TEMP              0 ****  ****    0 ROOT
