@<TRIPOS>MOLECULE
molecule
   46    48     1     0     0
SMALL
bcc


@<TRIPOS>ATOM
      1 C01          0.0000     0.0000     0.0000 ca         1 BUW       0.083200
      2 C02          1.3920     0.0000     0.0000 ca         1 BUW      -0.196500
      3 C03          2.0900     0.0000     1.1920 ca         1 BUW      -0.096500
      4 C04          1.4090     0.0000     2.3950 ca         1 BUW      -0.154500
      5 C05          0.0280    -0.0030     2.4070 ca         1 BUW      -0.077000
      6 C06         -0.6820     0.0010     1.2130 ca         1 BUW       0.019400
      7 C08         -2.8850    -0.5240    -0.3710 ca         1 BUW       0.019400
      8 C09         -4.1680    -1.0010    -0.6030 ca         1 BUW      -0.077000
      9 C10         -4.5320    -1.4290    -1.8670 ca         1 BUW      -0.154500
     10 C11         -3.6190    -1.3810    -2.9030 ca         1 BUW      -0.096500
     11 C12         -2.3400    -0.9070    -2.6800 ca         1 BUW      -0.196500
     12 C13         -1.9650    -0.4730    -1.4100 ca         1 BUW       0.083200
     13 N14         -0.6700     0.0060    -1.2200 na         1 BUW      -0.193100
     14 S07         -2.4410    -0.0140     1.2550 ss         1 BUW      -0.258800
     15 C15          0.0320     0.5530    -2.3830 c3         1 BUW       0.013300
     16 C16          0.9850    -0.5020    -2.9470 c3         1 BUW       0.130500
     17 C17          0.1750    -1.6690    -3.5140 c3         1 BUW      -0.093100
     18 C20          1.8020     1.1420    -6.2280 c3         1 BUW      -0.096100
     19 C22          3.9380     0.2400    -2.8310 c3         1 BUW      -0.096100
     20 N18          1.7990     0.0930    -4.0150 n3         1 BUW      -0.722600
     21 H1           1.9310    -0.0000    -0.9400 ha         1 BUW       0.152500
     22 H2           3.1730     0.0020     1.1840 ha         1 BUW       0.131500
     23 H3           1.9590     0.0000     3.3290 ha         1 BUW       0.134000
     24 H4          -0.5040    -0.0030     3.3510 ha         1 BUW       0.141000
     25 H5          -4.8840    -1.0390     0.2080 ha         1 BUW       0.141000
     26 H6          -5.5340    -1.8010    -2.0450 ha         1 BUW       0.134000
     27 H7          -3.9060    -1.7160    -3.8920 ha         1 BUW       0.131500
     28 H8          -1.6280    -0.8710    -3.4950 ha         1 BUW       0.152500
     29 H9          -0.6890     0.8310    -3.1420 h1         1 BUW       0.063700
     30 H10          0.5970     1.4280    -2.0850 h1         1 BUW       0.063700
     31 H11          1.6330    -0.8620    -2.1570 h1         1 BUW       0.082700
     32 H12          0.8460    -2.3850    -3.9740 hc         1 BUW       0.048033
     33 H13         -0.5210    -1.2990    -4.2570 hc         1 BUW       0.048033
     34 H14         -0.3730    -2.1510    -2.7140 hc         1 BUW       0.048033
     35 H15          0.1660     0.0780    -5.3290 h1         1 BUW       0.035200
     36 H16          0.5120     1.6450    -4.5850 h1         1 BUW       0.035200
     37 H17          2.6490     0.4710    -6.3040 hc         1 BUW       0.041200
     38 H18          1.1850     1.0460    -7.1130 hc         1 BUW       0.041200
     39 H19          2.1560     2.1620    -6.1430 hc         1 BUW       0.041200
     40 H20          3.1820     1.6910    -4.2240 h1         1 BUW       0.035200
     41 H21          2.2880     1.6100    -2.7000 h1         1 BUW       0.035200
     42 H22          3.7750    -0.8210    -2.9820 hc         1 BUW       0.041200
     43 H23          4.0280     0.4440    -1.7710 hc         1 BUW       0.041200
     44 H24          4.8490     0.5400    -3.3350 hc         1 BUW       0.041200
     45 C19          0.9520     0.7550    -5.0170 c3         1 BUW       0.150800
     46 C21          2.7890     1.0270    -3.4630 c3         1 BUW       0.150800
@<TRIPOS>BOND
     1     4     3 ar
     2     4     5 ar
     3     3     2 ar
     4     5     6 ar
     5     2     1 ar
     6     6     1 ar
     7     6    14 1
     8     1    13 1
     9    19    46 1
    10    46    20 1
    11    13    15 1
    12    13    12 1
    13    14     7 1
    14    15    16 1
    15    12     7 ar
    16    12    11 ar
    17    20    16 1
    18    20    45 1
    19    16    17 1
    20     7     8 ar
    21    18    45 1
    22    11    10 ar
    23     8     9 ar
    24    10     9 ar
    25     2    21 1
    26     3    22 1
    27     4    23 1
    28     5    24 1
    29     8    25 1
    30     9    26 1
    31    10    27 1
    32    11    28 1
    33    15    29 1
    34    15    30 1
    35    16    31 1
    36    17    32 1
    37    17    33 1
    38    17    34 1
    39    45    35 1
    40    45    36 1
    41    18    37 1
    42    18    38 1
    43    18    39 1
    44    46    40 1
    45    46    41 1
    46    19    42 1
    47    19    43 1
    48    19    44 1
@<TRIPOS>SUBSTRUCTURE
     1 BUW         1 TEMP              0 ****  ****    0 ROOT
