@<TRIPOS>MOLECULE
BUY
   58    64     1     0     0
SMALL
bcc


@<TRIPOS>ATOM
      1 C13          0.0000     0.0000     0.0000 c2         1 BUY       0.081000
      2 C17         -3.1530    -0.0890     2.7580 c3         1 BUY      -0.063000
      3 C15         -2.3970    -0.1200     0.4180 c3         1 BUY       0.337000
      4 C19         -4.8070    -0.2060     0.8740 c3         1 BUY      -0.008000
      5 C20         -5.6330     0.7750     1.6670 ca         1 BUY      -0.070000
      6 C21         -5.1460     1.4170     2.7830 ca         1 BUY      -0.067000
      7 C22         -3.7440     1.2130     3.2970 c3         1 BUY      -0.067000
      8 C23         -6.9300     1.0230     1.2390 ca         1 BUY      -0.080000
      9 C24         -7.7390     1.9050     1.9270 ca         1 BUY      -0.097000
     10 C34         -5.4380    -0.4770    -2.8210 ca         1 BUY      -0.141000
     11 C27         -4.8930     0.1340    -0.5920 c2         1 BUY       0.192000
     12 C33         -4.3300     0.1550    -3.3760 ca         1 BUY      -0.147500
     13 C2           3.7600     0.0000     0.0000 c2         1 BUY      -0.032000
     14 C3           4.0230     0.0000     1.3560 c2         1 BUY      -0.157000
     15 C4           2.9840     0.0010     2.2730 c2         1 BUY      -0.053000
     16 C5           1.6740     0.0000     1.8400 c2         1 BUY      -0.182000
     17 C6           1.3940    -0.0010     0.4700 c3         1 BUY       0.099000
     18 C7           2.4510    -0.0010    -0.4550 c2         1 BUY      -0.199000
     19 N8           2.1840     0.0000    -1.8280 na         1 BUY       0.333000
     20 C9           2.7410     0.7890    -2.7730 c2         1 BUY      -0.235000
     21 N10          2.2120     0.4550    -3.9200 n2         1 BUY      -0.120000
     22 N11          1.3580    -0.4920    -3.7660 n2         1 BUY       0.061000
     23 N12          1.2820    -0.8260    -2.5230 n2         1 BUY      -0.236000
     24 C14         -1.0100    -0.1260     0.8850 c2         1 BUY      -0.185000
     25 O16         -2.6370    -0.1000    -0.7750 o          1 BUY      -0.355000
     26 N18         -3.4080    -0.1380     1.3090 n3         1 BUY      -0.016000
     27 C25         -7.2530     2.5450     3.0520 ca         1 BUY      -0.099000
     28 C26         -5.9630     2.3010     3.4770 ca         1 BUY      -0.106000
     29 C29         -6.4970    -0.8730    -3.6320 ca         1 BUY      -0.147500
     30 C30         -6.4510    -0.6380    -4.9880 ca         1 BUY      -0.063500
     31 C31         -5.3400    -0.0040    -5.5490 ca         1 BUY      -0.083000
     32 C32         -4.2780     0.3920    -4.7300 ca         1 BUY      -0.063500
     33 C36         -5.2870     0.2490    -7.0010 c2         1 BUY       0.422000
     34 O37         -4.2140     0.8610    -7.5410 o          1 BUY      -0.621500
     35 O38         -6.2110    -0.0960    -7.7120 o          1 BUY      -0.621500
     36 H43          0.5510    -0.8920     0.2750 DU         1 BUY       0.049000
     37 H46         -2.0850    -0.1090     2.9420 h1         1 BUY       0.064500
     38 H45         -3.6290    -0.9340     3.2410 h1         1 BUY       0.064500
     39 H47         -5.1850    -1.2080     1.0390 h1         1 BUY       0.065000
     40 H49         -3.7790     1.1540     4.3780 hc         1 BUY       0.069500
     41 H48         -3.1290     2.0370     2.9560 hc         1 BUY       0.069500
     42 H50         -7.3110     0.5220     0.3570 ha         1 BUY       0.115000
     43 H51         -8.7510     2.0930     1.5890 ha         1 BUY       0.105000
     44 H57         -3.5070     0.4620    -2.7410 ha         1 BUY       0.112500
     45 H39          4.5790    -0.0080    -0.7090 ha         1 BUY       0.113000
     46 H40          5.0490    -0.0010     1.7050 ha         1 BUY       0.121000
     47 H41          0.8660     0.0760     2.5580 ha         1 BUY       0.140000
     48 H42          3.4890     1.5570    -2.6100 h5         1 BUY       0.169000
     49 H44         -1.5030    -0.9750     0.4270 DU         1 BUY       0.067000
     50 H52         -7.8820     3.2380     3.5970 ha         1 BUY       0.099000
     51 H53         -5.5840     2.8030     4.3590 ha         1 BUY       0.100000
     52 H54         -7.3590    -1.3650    -3.1970 ha         1 BUY       0.112500
     53 H55         -7.2750    -0.9460    -5.6190 ha         1 BUY       0.126000
     54 H56         -3.4150     0.8850    -5.1610 ha         1 BUY       0.126000
     55 H58         -5.9360    -1.5440    -1.1020 hn         1 BUY       0.058000
     56 O28         -4.4310     1.1780    -0.9990 o          1 BUY      -0.354000
     57 Cl1          3.3310     0.0010     3.9740 cl         1 BUY       0.055000
     58 N35         -5.4850    -0.7210    -1.4490 ns         1 BUY       0.143000
@<TRIPOS>BOND
     1     1    17 1   
     2     1    24 1   
     3     1    36 1   
     4     2     7 1   
     5     2    26 1   
     6     2    37 1   
     7     2    38 1   
     8     3    24 1   
     9     3    25 1   
    10     3    26 1   
    11     3    49 1   
    12     4     5 1   
    13     4    11 1   
    14     4    26 1   
    15     4    39 1   
    16     5     6 1   
    17     5     8 1   
    18     6     7 1   
    19     6    28 1   
    20     7    40 1   
    21     7    41 1   
    22     8     9 1   
    23     8    42 1   
    24     9    27 1   
    25     9    43 1   
    26    10    12 1   
    27    10    29 1   
    28    10    58 1   
    29    11    56 1   
    30    11    58 1   
    31    12    32 1   
    32    12    44 1   
    33    13    14 1   
    34    13    18 1   
    35    13    45 1   
    36    14    15 1   
    37    14    46 1   
    38    15    16 1   
    39    15    57 1   
    40    16    17 1   
    41    16    47 1   
    42    17    18 1   
    43    17    36 1   
    44    18    19 1   
    45    19    20 1   
    46    19    23 1   
    47    20    21 1   
    48    20    48 1   
    49    21    22 1   
    50    22    23 1   
    51    24    49 1   
    52    27    28 1   
    53    27    50 1   
    54    28    51 1   
    55    29    30 1   
    56    29    52 1   
    57    30    31 1   
    58    30    53 1   
    59    31    32 1   
    60    31    33 1   
    61    32    54 1   
    62    33    34 1   
    63    33    35 1   
    64    55    58 1   
@<TRIPOS>SUBSTRUCTURE
     1 BUY         1 TEMP              0 ****  ****    0 ROOT
