@<TRIPOS>MOLECULE
molecule
   58    62     1     0     0
SMALL
bcc


@<TRIPOS>ATOM
      1 C13          0.0000     0.0000     0.0000 ce         1 BUY      -0.044200
      2 C17         -3.1530    -0.0890     2.7580 c3         1 BUY       0.104000
      3 C15         -2.3970    -0.1200     0.4180 c          1 BUY       0.663300
      4 C19         -4.8070    -0.2060     0.8740 c3         1 BUY       0.095000
      5 C20         -5.6330     0.7750     1.6670 ca         1 BUY      -0.074300
      6 C21         -5.1460     1.4170     2.7830 ca         1 BUY      -0.064300
      7 C22         -3.7440     1.2130     3.2970 c3         1 BUY      -0.053100
      8 C23         -6.9300     1.0230     1.2390 ca         1 BUY      -0.108000
      9 C24         -7.7390     1.9050     1.9270 ca         1 BUY      -0.125000
     10 C34         -5.4380    -0.4770    -2.8210 ca         1 BUY       0.013600
     11 C27         -4.8930     0.1340    -0.5920 c          1 BUY       0.667100
     12 C33         -4.3300     0.1550    -3.3760 ca         1 BUY      -0.169500
     13 C2           3.7600     0.0000     0.0000 ca         1 BUY      -0.124000
     14 C3           4.0230     0.0000     1.3560 ca         1 BUY      -0.112000
     15 C4           2.9840     0.0010     2.2730 ca         1 BUY       0.031400
     16 C5           1.6740     0.0000     1.8400 ca         1 BUY      -0.107000
     17 C6           1.3940    -0.0010     0.4700 ca         1 BUY      -0.031800
     18 C7           2.4510    -0.0010    -0.4550 ca         1 BUY       0.026800
     19 N8           2.1840     0.0000    -1.8280 na         1 BUY      -0.019500
     20 C9           2.7410     0.7890    -2.7730 cd         1 BUY       0.407400
     21 N10          2.2120     0.4550    -3.9200 nc         1 BUY      -0.398000
     22 N11          1.3580    -0.4920    -3.7660 nc         1 BUY       0.024000
     23 N12          1.2820    -0.8260    -2.5230 nd         1 BUY      -0.197800
     24 C14         -1.0100    -0.1260     0.8850 cf         1 BUY      -0.221200
     25 O16         -2.6370    -0.1000    -0.7750 o          1 BUY      -0.549100
     26 N18         -3.4080    -0.1380     1.3090 n          1 BUY      -0.479800
     27 C25         -7.2530     2.5450     3.0520 ca         1 BUY      -0.127000
     28 C26         -5.9630     2.3010     3.4770 ca         1 BUY      -0.134000
     29 C29         -6.4970    -0.8730    -3.6320 ca         1 BUY      -0.169500
     30 C30         -6.4510    -0.6380    -4.9880 ca         1 BUY      -0.091000
     31 C31         -5.3400    -0.0040    -5.5490 ca         1 BUY      -0.111600
     32 C32         -4.2780     0.3920    -4.7300 ca         1 BUY      -0.091000
     33 C36         -5.2870     0.2490    -7.0010 c          1 BUY       0.883200
     34 O37         -4.2140     0.8610    -7.5410 o          1 BUY      -0.841300
     35 O38         -6.2110    -0.0960    -7.7120 o          1 BUY      -0.841300
     36 H43         -0.2160     0.1060    -1.0560 ha         1 BUY       0.190000
     37 H46         -2.0850    -0.1090     2.9420 h1         1 BUY       0.048700
     38 H45         -3.6290    -0.9340     3.2410 h1         1 BUY       0.048700
     39 H47         -5.1850    -1.2080     1.0390 h1         1 BUY       0.054700
     40 H49         -3.7790     1.1540     4.3780 hc         1 BUY       0.057700
     41 H48         -3.1290     2.0370     2.9560 hc         1 BUY       0.057700
     42 H50         -7.3110     0.5220     0.3570 ha         1 BUY       0.145000
     43 H51         -8.7510     2.0930     1.5890 ha         1 BUY       0.132000
     44 H57         -3.5070     0.4620    -2.7410 ha         1 BUY       0.127500
     45 H39          4.5790    -0.0090    -0.7090 ha         1 BUY       0.148000
     46 H40          5.0490    -0.0010     1.7050 ha         1 BUY       0.150000
     47 H41          0.8660     0.0750     2.5580 ha         1 BUY       0.156000
     48 H42          3.4890     1.5570    -2.6100 h5         1 BUY       0.077100
     49 H44         -0.7940    -0.2280     1.9420 ha         1 BUY       0.122000
     50 H52         -7.8820     3.2380     3.5970 ha         1 BUY       0.125000
     51 H53         -5.5840     2.8030     4.3590 ha         1 BUY       0.123000
     52 H54         -7.3590    -1.3650    -3.1970 ha         1 BUY       0.127500
     53 H55         -7.2750    -0.9460    -5.6190 ha         1 BUY       0.151500
     54 H56         -3.4150     0.8850    -5.1610 ha         1 BUY       0.151500
     55 H58         -5.9340    -1.5450    -1.1020 hn         1 BUY       0.301500
     56 O28         -4.4310     1.1780    -0.9990 o          1 BUY      -0.560100
     57 Cl1          3.3310     0.0010     3.9740 cl         1 BUY      -0.103400
     58 N35         -5.4850    -0.7210    -1.4490 ns         1 BUY      -0.464100
@<TRIPOS>BOND
     1    21    20 2
     2    21    22 1
     3    20    19 1
     4    22    23 2
     5    19    23 1
     6    19    18 1
     7     7     2 1
     8     7     6 1
     9    13    18 ar
    10    13    14 ar
    11     2    26 1
    12    18    17 ar
    13    28     6 ar
    14    28    27 ar
    15     6     5 ar
    16    14    15 ar
    17    56    11 2
    18    17     1 1
    19    17    16 ar
    20    24     1 2
    21    24     3 1
    22    27     9 ar
    23    26     3 1
    24    26     4 1
    25    15    16 ar
    26    15    57 1
    27     3    25 2
    28     5     4 1
    29     5     8 ar
    30    11     4 1
    31    11    58 1
    32    12    32 ar
    33    12    10 ar
    34     9     8 ar
    35    32    31 ar
    36    58    10 1
    37    35    33 1
    38    10    29 ar
    39    31    33 1
    40    31    30 ar
    41    33    34 1
    42    29    30 ar
    43     1    36 1
    44     2    37 1
    45     2    38 1
    46     4    39 1
    47     7    40 1
    48     7    41 1
    49     8    42 1
    50     9    43 1
    51    12    44 1
    52    13    45 1
    53    14    46 1
    54    16    47 1
    55    20    48 1
    56    24    49 1
    57    27    50 1
    58    28    51 1
    59    29    52 1
    60    30    53 1
    61    32    54 1
    62    58    55 1
@<TRIPOS>SUBSTRUCTURE
     1 BUY         1 TEMP              0 ****  ****    0 ROOT
