@<TRIPOS>MOLECULE
molecule
   44    45     1     0     0
SMALL
bcc


@<TRIPOS>ATOM
      1 C1           0.0000     0.0000     0.0000 ca         1 BV5      -0.036000
      2 C2           1.3830     0.0000     0.0000 ca         1 BV5      -0.170000
      3 C3           2.0760     0.0000     1.1960 ca         1 BV5       0.019000
      4 C4           1.3880    -0.0010     2.3950 ca         1 BV5      -0.312500
      5 C5           0.0020    -0.0010     2.3960 ca         1 BV5       0.212100
      6 C6          -0.6920    -0.0000     1.1950 ca         1 BV5      -0.224000
      7 O7          -0.6780    -0.0020     3.5750 os         1 BV5      -0.348900
      8 C8          -2.1050    -0.0010     3.5000 c3         1 BV5       0.802700
      9 F9          -2.5360    -1.1430     2.8170 f          1 BV5      -0.199967
     10 F10         -2.6390    -0.0020     4.7930 f          1 BV5      -0.199967
     11 F11         -2.5360     1.1410     2.8180 f          1 BV5      -0.199967
     12 S12          2.2720    -0.0020     3.9180 sy         1 BV5       1.420900
     13 O13          3.6530    -0.0420     3.5820 o          1 BV5      -0.609800
     14 O14          1.6970     1.0220     4.7180 o          1 BV5      -0.609800
     15 N15          1.9350    -1.4340     4.6800 ns         1 BV5      -0.654300
     16 C16          2.3300    -2.5990     4.1290 c          1 BV5       0.675100
     17 O17          3.0140    -2.5960     3.1270 o          1 BV5      -0.560100
     18 C18          1.9220    -3.9060     4.7580 c3         1 BV5      -0.160400
     19 C19          2.4970    -5.0660     3.9420 c3         1 BV5      -0.064400
     20 C20          2.0820    -6.3930     4.5810 c3         1 BV5      -0.076700
     21 C21          2.5510    -7.5540     3.6990 c3         1 BV5      -0.073900
     22 C22          2.1880    -8.8780     4.3730 c3         1 BV5       0.158800
     23 N23          2.8300    -8.9520     5.6910 n7         1 BV5      -0.817200
     24 C24          2.3600    -7.8750     6.5720 c3         1 BV5       0.158800
     25 C25          2.7280    -6.5200     5.9630 c3         1 BV5      -0.073900
     26 H1          -0.5410     0.0000    -0.9390 ha         1 BV5       0.142000
     27 H2           1.9230     0.0000    -0.9390 ha         1 BV5       0.145000
     28 H6          -1.7760    -0.0000     1.1940 ha         1 BV5       0.154000
     29 H3           3.1600    -0.0000     1.1930 ha         1 BV5       0.174000
     30 H15          1.4770    -1.4310     5.5700 hn         1 BV5       0.349500
     31 H181         2.3010    -3.9530     5.7710 hc         1 BV5       0.067700
     32 H182         0.8410    -3.9770     4.7730 hc         1 BV5       0.067700
     33 H191         2.1170    -5.0190     2.9290 hc         1 BV5       0.061700
     34 H192         3.5780    -4.9960     3.9270 hc         1 BV5       0.061700
     35 H20          1.0040    -6.4300     4.6830 hc         1 BV5       0.045700
     36 H211         2.0620    -7.4940     2.7350 hc         1 BV5       0.050450
     37 H212         3.6250    -7.4980     3.5710 hc         1 BV5       0.050450
     38 H251         3.8050    -6.4490     5.8660 hc         1 BV5       0.050450
     39 H252         2.3650    -5.7260     6.6050 hc         1 BV5       0.050450
     40 H221         2.5330    -9.7010     3.7590 h1         1 BV5       0.030700
     41 H222         1.1130    -8.9370     4.4940 h1         1 BV5       0.030700
     42 H23          2.6300    -9.8380     6.1110 hn         1 BV5       0.353800
     43 H241         1.2840    -7.9410     6.6780 h1         1 BV5       0.030700
     44 H242         2.8300    -7.9730     7.5430 h1         1 BV5       0.030700
@<TRIPOS>BOND
     1     1     2 ar
     2     1     6 ar
     3     2     3 ar
     4     3     4 ar
     5     4     5 ar
     6     4    12 1
     7     5     6 ar
     8     5     7 1
     9     7     8 1
    10     8     9 1
    11     8    10 1
    12     8    11 1
    13    12    13 2
    14    12    14 2
    15    12    15 1
    16    15    16 1
    17    16    17 2
    18    16    18 1
    19    18    19 1
    20    19    20 1
    21    20    21 1
    22    20    25 1
    23    21    22 1
    24    22    23 1
    25    23    24 1
    26    24    25 1
    27     1    26 1
    28     2    27 1
    29     6    28 1
    30     3    29 1
    31    15    30 1
    32    18    31 1
    33    18    32 1
    34    19    33 1
    35    19    34 1
    36    20    35 1
    37    21    36 1
    38    21    37 1
    39    25    38 1
    40    25    39 1
    41    22    40 1
    42    22    41 1
    43    23    42 1
    44    24    43 1
    45    24    44 1
@<TRIPOS>SUBSTRUCTURE
     1 BV5         1 TEMP              0 ****  ****    0 ROOT
