@<TRIPOS>MOLECULE
BV7
   25    25     1     0     0
SMALL
bcc


@<TRIPOS>ATOM
      1 C1           0.0000     0.0000     0.0000 c3         1 BV7      -0.027900
      2 C2           1.5310     0.0000     0.0000 c3         1 BV7       0.145300
      3 N3           2.0220     0.0000     1.3840 n7         1 BV7      -0.581200
      4 C4           1.5880    -1.2060     2.1000 c3         1 BV7       0.145300
      5 C5           0.0600    -1.2420     2.1640 c3         1 BV7      -0.027900
      6 C6          -0.5050    -1.2410     0.7400 c3         1 BV7      -0.058700
      7 C7          -2.0340    -1.2150     0.7970 c3         1 BV7      -0.012400
      8 C8          -2.5430    -2.5140     1.4250 c3         1 BV7      -0.140400
      9 C9          -4.0480    -2.4900     1.4810 c          1 BV7       0.980600
     10 O10         -4.6530    -1.5310     1.0610 o          1 BV7      -0.906800
     11 O11         -4.7190    -3.5310     1.9980 o          1 BV7      -0.906800
     12 H11C        -0.3600    -0.0180    -1.0210 hc         1 BV7       0.024700
     13 H12C        -0.3610     0.8900     0.5010 hc         1 BV7       0.024700
     14 H21C         1.8900    -0.8860    -0.5090 h1         1 BV7      -0.005300
     15 H22C         1.8900     0.8860    -0.5090 h1         1 BV7      -0.005300
     16 H6          -0.1720    -2.1310     0.2200 hc         1 BV7       0.018700
     17 H3           3.0210     0.0470     1.3830 hn         1 BV7       0.233800
     18 H41C         1.9470    -2.0840     1.5770 h1         1 BV7      -0.005300
     19 H42C         1.9900    -1.1910     3.1060 h1         1 BV7      -0.005300
     20 H51C        -0.2990    -0.3690     2.6950 hc         1 BV7       0.024700
     21 H52C        -0.2590    -2.1410     2.6780 hc         1 BV7       0.024700
     22 H71C        -2.4310    -1.1200    -0.2060 hc         1 BV7       0.023700
     23 H72C        -2.3590    -0.3730     1.3960 hc         1 BV7       0.023700
     24 H81C        -2.2180    -3.3560     0.8270 hc         1 BV7       0.006200
     25 H82C        -2.1460    -2.6090     2.4290 hc         1 BV7       0.006200
@<TRIPOS>BOND
     1     1     2 1   
     2     1     6 1   
     3     1    12 1   
     4     1    13 1   
     5     2     3 1   
     6     2    14 1   
     7     2    15 1   
     8     3     4 1   
     9     3    17 1   
    10     4     5 1   
    11     4    18 1   
    12     4    19 1   
    13     5     6 1   
    14     5    20 1   
    15     5    21 1   
    16     6     7 1   
    17     6    16 1   
    18     7     8 1   
    19     7    22 1   
    20     7    23 1   
    21     8     9 1   
    22     8    24 1   
    23     8    25 1   
    24     9    10 1   
    25     9    11 1   
@<TRIPOS>SUBSTRUCTURE
     1 BV7         1 TEMP              0 ****  ****    0 ROOT
