@<TRIPOS>MOLECULE
molecule
   28    29     1     0     0
SMALL
bcc


@<TRIPOS>ATOM
      1 OAA          0.0000     0.0000     0.0000 oh         1 BVB      -0.521100
      2 OAB          4.1130     0.0010     2.3870 oh         1 BVB      -0.521100
      3 CAD          5.5280    -0.0020    -2.4720 ce         1 BVB      -0.090200
      4 CAE          4.1860    -0.0010    -2.4750 cf         1 BVB      -0.144200
      5 CAF          7.5770    -0.0020    -6.0630 ca         1 BVB      -0.094500
      6 CAG          5.3520    -0.0020    -6.9660 ca         1 BVB      -0.094500
      7 CAH          7.0660    -0.0020    -4.7830 ca         1 BVB      -0.130000
      8 CAI          4.8270    -0.0020    -5.6920 ca         1 BVB      -0.130000
      9 CAJ          2.0520     0.0000     1.2020 ca         1 BVB      -0.183000
     10 CAK          2.0490    -0.0000    -1.2010 ca         1 BVB      -0.158000
     11 CAL          4.1390    -0.0010     0.0120 ca         1 BVB      -0.158000
     12 CAM          1.3590     0.0000     0.0000 ca         1 BVB       0.124100
     13 CAN          3.4390    -0.0000     1.2070 ca         1 BVB       0.124100
     14 CAO          6.7250    -0.0020    -7.1540 ca         1 BVB      -0.031900
     15 CAP          5.6820    -0.0020    -4.5870 ca         1 BVB      -0.044800
     16 CAQ          3.4460    -0.0010    -1.2010 ca         1 BVB      -0.037800
     17 HOAA        -0.3140    -0.8890    -0.0070 ho         1 BVB       0.423000
     18 HOAB         4.2100     0.8880     2.6930 ho         1 BVB       0.423000
     19 HAD          6.0680    -0.0020    -1.5330 ha         1 BVB       0.187000
     20 HAE          3.6460    -0.0000    -3.4140 ha         1 BVB       0.144000
     21 HAF          8.6500    -0.0020    -6.2160 ha         1 BVB       0.147000
     22 HAG          4.6900    -0.0020    -7.8240 ha         1 BVB       0.147000
     23 HAH          7.7350    -0.0020    -3.9310 ha         1 BVB       0.140500
     24 HAI          3.7540    -0.0010    -5.5470 ha         1 BVB       0.140500
     25 HAJ          1.5080     0.0000     2.1390 ha         1 BVB       0.151000
     26 HAK          1.5070     0.0730    -2.1370 ha         1 BVB       0.142500
     27 HAL          5.2200    -0.0710     0.0180 ha         1 BVB       0.142500
     28 Br           7.4350    -0.0030    -8.9060 br         1 BVB      -0.095100
@<TRIPOS>BOND
     1     1    12 1
     2     2    13 1
     3    28    14 1
     4     3     4 2
     5     3    15 1
     6     4    16 1
     7     5     7 ar
     8     5    14 ar
     9     6     8 ar
    10     6    14 ar
    11     7    15 ar
    12     8    15 ar
    13     9    12 ar
    14     9    13 ar
    15    10    12 ar
    16    10    16 ar
    17    11    13 ar
    18    11    16 ar
    19     1    17 1
    20     2    18 1
    21     3    19 1
    22     4    20 1
    23     5    21 1
    24     6    22 1
    25     7    23 1
    26     8    24 1
    27     9    25 1
    28    10    26 1
    29    11    27 1
@<TRIPOS>SUBSTRUCTURE
     1 BVB         1 TEMP              0 ****  ****    0 ROOT
