@<TRIPOS>MOLECULE
BVB
   28    29     1     0     0
SMALL
bcc


@<TRIPOS>ATOM
      1 OAA         0.0260   -0.5190   -0.5960 oh        1 BVB     -0.495600
      2 OAB         3.9860    2.1000    0.0010 oh        1 BVB     -0.495600
      3 CAD         5.1300   -2.0570   -3.3350 ce        1 BVB     -0.105200
      4 CAE         4.1620   -2.1830   -2.4170 cf        1 BVB     -0.102200
      5 CAF         7.5980    0.3840   -4.7520 ca        1 BVB     -0.106500
      6 CAG         5.3970    1.3830   -4.8520 ca        1 BVB     -0.106500
      7 CAH         7.0510   -0.7560   -4.1680 ca        1 BVB     -0.118500
      8 CAI         4.8550    0.2450   -4.2600 ca        1 BVB     -0.118500
      9 CAJ         2.0150    0.8370   -0.2750 ca        1 BVB     -0.242000
     10 CAK         2.0710   -1.2890   -1.4870 ca        1 BVB     -0.209500
     11 CAL         4.1080    0.0020   -1.2250 ca        1 BVB     -0.209500
     12 CAM         1.3720   -0.3010   -0.7750 ca        1 BVB      0.159100
     13 CAN         3.3910    0.9700   -0.5100 ca        1 BVB      0.159100
     14 CAO         6.7710    1.4580   -5.0970 ca        1 BVB     -0.026900
     15 CAP         5.6740   -0.8360   -3.9090 ca        1 BVB     -0.049800
     16 CAQ         3.4430   -1.1290   -1.7150 ca        1 BVB      0.006200
     17 HOAA       -0.3330    0.2240   -0.0890 ho        1 BVB      0.423500
     18 HOAB        4.9250    2.0780   -0.2380 ho        1 BVB      0.423500
     19 HAD         5.5950   -2.9780   -3.7370 ha        1 BVB      0.131000
     20 HAE         3.8440   -3.2020   -2.1250 ha        1 BVB      0.134000
     21 HAF         8.6810    0.4300   -4.9420 ha        1 BVB      0.148000
     22 HAG         4.7350    2.2200   -5.1250 ha        1 BVB      0.148000
     23 HAH         7.7060   -1.6010   -3.9070 ha        1 BVB      0.144500
     24 HAI         3.7720    0.1930   -4.0620 ha        1 BVB      0.144500
     25 HAJ         1.4730    1.6090    0.2870 ha        1 BVB      0.154000
     26 HAK         1.5330   -2.1720   -1.8580 ha        1 BVB      0.150000
     27 HAL         5.1850    0.1270   -1.4070 ha        1 BVB      0.150000
     28 BR          7.5040    2.9890   -5.8860 br        1 BVB     -0.087100
@<TRIPOS>BOND
     1    1   12 1   
     2    1   17 1   
     3    2   13 1   
     4    2   18 1   
     5    3    4 2   
     6    3   15 1   
     7    3   19 1   
     8    4   16 1   
     9    4   20 1   
    10    5    7 ar  
    11    5   14 ar  
    12    5   21 1   
    13    6    8 ar  
    14    6   14 ar  
    15    6   22 1   
    16    7   15 ar  
    17    7   23 1   
    18    8   15 ar  
    19    8   24 1   
    20    9   12 ar  
    21    9   13 ar  
    22    9   25 1   
    23   10   12 ar  
    24   10   16 ar  
    25   10   26 1   
    26   11   13 ar  
    27   11   16 ar  
    28   11   27 1   
    29   14   28 1   
@<TRIPOS>SUBSTRUCTURE
     1 BVB         1 TEMP              0 ****  ****    0 ROOT
