@<TRIPOS>MOLECULE
BVC
   15    15     1     0     0
SMALL
bcc


@<TRIPOS>ATOM
      1 C1           0.0000     0.0000     0.0000 cc         1 BVC       0.109900
      2 S2           1.7860     0.0000     0.0000 ss         1 BVC      -0.199800
      3 C3           2.0370     0.0000     1.7680 cc         1 BVC       0.073900
      4 C4           0.7630     0.0000     2.2320 cd         1 BVC      -0.245300
      5 C5          -0.2800    -0.0060     1.3260 cd         1 BVC      -0.173000
      6 C6           0.4890     0.0010     3.7140 c3         1 BVC       0.046100
      7 N7           0.4000     1.3860     4.1950 nz         1 BVC       0.075400
      8 H1          -0.6820    -0.0020    -0.8420 h4         1 BVC       0.182000
      9 H3           2.9660     0.0020     2.3250 h4         1 BVC       0.170000
     10 H5          -1.3070    -0.0070     1.6710 ha         1 BVC       0.124000
     11 H61         -0.4470    -0.5090     3.9080 hx         1 BVC       0.082700
     12 H62          1.2920    -0.5100     4.2300 hx         1 BVC       0.082700
     13 HN71         0.4270     1.3940     5.1960 hn         1 BVC       0.223133
     14 HN72        -0.4580     1.7940     3.8810 hn         1 BVC       0.223133
     15 H73          1.1710     1.9140     3.8370 hn         1 BVC       0.223133
@<TRIPOS>BOND
     1     1     2 1   
     2     1     5 2   
     3     1     8 1   
     4     2     3 1   
     5     3     4 2   
     6     3     9 1   
     7     4     5 1   
     8     4     6 1   
     9     5    10 1   
    10     6     7 1   
    11     6    11 1   
    12     6    12 1   
    13     7    13 1   
    14     7    14 1   
    15     7    15 1   
@<TRIPOS>SUBSTRUCTURE
     1 BVC         1 TEMP              0 ****  ****    0 ROOT
