@<TRIPOS>MOLECULE
BVD
   32    34     1     0     0
SMALL
bcc


@<TRIPOS>ATOM
      1 O5'          0.0000     0.0000     0.0000 oh         1 BVD      -0.312000
      2 C5'          1.4290     0.0000     0.0000 c3         1 BVD       0.073000
      3 C4'          1.9380     0.0000     1.4430 c3         1 BVD       0.061000
      4 O4'          1.5410    -1.2120     2.1220 os         1 BVD      -0.230000
      5 C1'          2.4370    -1.3840     3.2310 c3         1 BVD       0.088000
      6 N1           2.6760    -2.8100     3.4620 n          1 BVD       0.170000
      7 C6           2.3690    -3.3510     4.6770 c2         1 BVD      -0.164000
      8 C2           3.1890    -3.5580     2.4730 c2         1 BVD       0.176000
      9 O2           3.4460    -3.0330     1.4070 o          1 BVD      -0.423000
     10 N3           3.4330    -4.8710     2.6290 ns         1 BVD       0.111000
     11 C4           3.1560    -5.4800     3.8000 c2         1 BVD       0.242000
     12 O4           3.3710    -6.6700     3.9470 o          1 BVD      -0.366000
     13 C5           2.5900    -4.6800     4.8960 c3         1 BVD      -0.139000
     14 C5A          2.2680    -5.2990     6.1970 c2         1 BVD      -0.192000
     15 C5B          2.3850    -6.6110     6.3570 c2         1 BVD       0.165000
     16 Br           1.8380    -7.4210     7.9750 br         1 BVD      -0.140000
     17 C2'          3.7590    -0.6800     2.8670 c3         1 BVD      -0.181000
     18 C3'          3.4850    -0.0550     1.4740 c3         1 BVD       0.049000
     19 O3'          4.0510     1.2540     1.3830 oh         1 BVD      -0.307000
     20 HO5'        -0.3140     0.0680    -0.8860 ho         1 BVD       0.189000
     21 H5'1         1.7900    -0.8840    -0.5110 h1         1 BVD       0.038500
     22 H5'2         1.7900     0.8850    -0.5110 h1         1 BVD       0.038500
     23 H4'          1.5800     0.8700     1.9800 h1         1 BVD       0.077000
     24 H1'          2.0130    -0.9290     4.1180 h2         1 BVD       0.076000
     25 H6           1.9530    -2.7300     5.4610 h4         1 BVD       0.154000
     26 HN3          3.8160    -5.4000     1.8710 hn         1 BVD       0.125000
     27 H5A          3.2850    -5.0620     5.9080 DU         1 BVD       0.117000
     28 H5B          3.0200    -6.6290     7.2350 h4         1 BVD       0.067000
     29 H2'1         3.9870     0.0940     3.5900 hc         1 BVD       0.080500
     30 H2'2         4.5660    -1.4010     2.8050 hc         1 BVD       0.080500
     31 H3'          3.8600    -0.6990     0.6870 h1         1 BVD       0.082000
     32 HO3'         4.8610     1.2140     0.9020 ho         1 BVD       0.194000
@<TRIPOS>BOND
     1     1     2 1   
     2     1    20 1   
     3     2     3 1   
     4     2    21 1   
     5     2    22 1   
     6     3     4 1   
     7     3    18 1   
     8     3    23 1   
     9     4     5 1   
    10     5     6 1   
    11     5    17 1   
    12     5    24 1   
    13     6     7 1   
    14     6     8 1   
    15     7    13 1   
    16     7    25 1   
    17     8     9 1   
    18     8    10 1   
    19    10    11 1   
    20    10    26 1   
    21    11    12 1   
    22    11    13 1   
    23    13    14 1   
    24    13    27 1   
    25    14    15 1   
    26    14    27 1   
    27    15    16 1   
    28    15    28 1   
    29    17    18 1   
    30    17    29 1   
    31    17    30 1   
    32    18    19 1   
    33    18    31 1   
    34    19    32 1   
@<TRIPOS>SUBSTRUCTURE
     1 BVD         1 TEMP              0 ****  ****    0 ROOT
