@<TRIPOS>MOLECULE
molecule
   64    68     1     0     0
SMALL
bcc


@<TRIPOS>ATOM
      1 C12          0.0000     0.0000     0.0000 ca         1 BVE      -0.130750
      2 C13          1.3930     0.7350    -4.7970 cp         1 BVE      -0.101500
      3 C18          0.0270     0.4750    -4.8960 ca         1 BVE      -0.130750
      4 C22          3.4830     0.0060    -3.6680 ca         1 BVE      -0.155500
      5 C17         -0.6620     0.8440    -6.0330 ca         1 BVE      -0.118750
      6 C16          0.0000     1.4690    -7.0740 ca         1 BVE      -0.071500
      7 C15          1.3560     1.7290    -6.9810 ca         1 BVE      -0.118750
      8 C14          2.0550     1.3650    -5.8490 ca         1 BVE      -0.130750
      9 C21          4.1760    -0.3510    -2.5090 cp         1 BVE       0.118000
     10 C28         -2.9780    -0.0370    -1.3930 ca         1 BVE      -0.138000
     11 C29         -4.3110     0.3130    -1.4940 ca         1 BVE      -0.014000
     12 C24         -4.8830     0.5040    -2.7370 ca         1 BVE      -0.338500
     13 S1          -6.5820     0.9490    -2.8670 sy         1 BVE       1.234200
     14 O2          -7.0080     0.5400    -4.1600 o          1 BVE      -0.501800
     15 O1          -7.2060     0.5080    -1.6680 o          1 BVE      -0.501800
     16 N2          -6.6580     2.6030    -2.8510 nz         1 BVE      -0.808500
     17 C25         -4.1220     0.3440    -3.8800 ca         1 BVE      -0.014000
     18 C26         -2.7890    -0.0070    -3.7790 ca         1 BVE      -0.138000
     19 C27         -2.2140    -0.1920    -2.5350 ca         1 BVE      -0.011300
     20 C30         -0.7620    -0.5730    -2.4250 c3         1 BVE      -0.112100
     21 N1           1.5120     0.3280    -2.4040 na         1 BVE       0.039900
     22 C23          2.1370     0.3470    -3.5740 cp         1 BVE       0.079700
     23 C1           5.6120    -0.7200    -2.5650 cp         1 BVE      -0.112000
     24 C6           6.2900    -1.0750    -1.4010 ca         1 BVE      -0.083500
     25 C5           7.6250    -1.4180    -1.4600 ca         1 BVE      -0.121500
     26 C4           8.2920    -1.4090    -2.6720 ca         1 BVE      -0.063000
     27 C3           7.6240    -1.0570    -3.8310 ca         1 BVE      -0.121500
     28 C2           6.2880    -0.7180    -3.7850 ca         1 BVE      -0.083500
     29 C20          3.4840    -0.3540    -1.2950 ca         1 BVE      -0.155500
     30 C19          2.1380    -0.0020    -1.2830 cp         1 BVE       0.079700
     31 C7           1.3940     0.0000     0.0000 cp         1 BVE      -0.101500
     32 C11         -0.6880     0.0020     1.1960 ca         1 BVE      -0.118750
     33 C10          0.0030    -0.0010     2.3940 ca         1 BVE      -0.071500
     34 C9           1.3870    -0.0080     2.4000 ca         1 BVE      -0.118750
     35 C8           2.0840     0.0000     1.2100 ca         1 BVE      -0.130750
     36 H1          -0.5420     0.0030    -0.9380 ha         1 BVE       0.158750
     37 H2          -0.4930    -0.0150    -4.0810 ha         1 BVE       0.158750
     38 H3           3.9350    -0.1520    -4.6390 ha         1 BVE       0.192500
     39 H4          -1.7240     0.6430    -6.1110 ha         1 BVE       0.151000
     40 H5          -0.5450     1.7570    -7.9650 ha         1 BVE       0.160000
     41 H6           1.8700     2.2190    -7.7990 ha         1 BVE       0.151000
     42 H7           3.1160     1.5690    -5.7770 ha         1 BVE       0.158750
     43 H8          -2.5290    -0.1840    -0.4180 ha         1 BVE       0.172500
     44 H9          -4.9080     0.4330    -0.5980 ha         1 BVE       0.166500
     45 H10         -6.2770     2.9460    -1.9920 hn         1 BVE       0.495133
     46 H11         -7.6120     2.8940    -2.9330 hn         1 BVE       0.495133
     47 H12         -4.5710     0.4900    -4.8550 ha         1 BVE       0.166500
     48 H13         -2.1920    -0.1300    -4.6750 ha         1 BVE       0.172500
     49 H14         -0.4740    -1.1520    -3.2940 hc         1 BVE       0.112200
     50 H15         -0.6110    -1.1660    -1.5310 hc         1 BVE       0.112200
     51 H16         -0.1100     1.2110    -1.4190 h1         1 BVE       0.119200
     52 H17         -0.1450     1.3410    -3.1830 h1         1 BVE       0.119200
     53 H18          5.7560    -1.1370    -0.4610 ha         1 BVE       0.132000
     54 H19          8.1520    -1.6960    -0.5550 ha         1 BVE       0.158000
     55 H20          9.3400    -1.6790    -2.7140 ha         1 BVE       0.160000
     56 H21          8.1520    -1.0470    -4.7770 ha         1 BVE       0.158000
     57 H22          5.8000    -0.4500    -4.7150 ha         1 BVE       0.132000
     58 H23          3.9900    -0.6250    -0.3760 ha         1 BVE       0.192500
     59 H24         -1.7720     0.0050     1.1960 ha         1 BVE       0.151000
     60 H25         -0.5410    -0.0030     3.3310 ha         1 BVE       0.160000
     61 H26          1.9230    -0.0090     3.3410 ha         1 BVE       0.151000
     62 H27          3.1670    -0.0030     1.2160 ha         1 BVE       0.158750
     63 H231        -6.1350     2.9680    -3.6230 hn         1 BVE       0.495133
     64 C31          0.0940     0.6930    -2.3490 c3         1 BVE      -0.042700
@<TRIPOS>BOND
     1    27    26 ar
     2    27    28 ar
     3    26    25 ar
     4    28    23 ar
     5    25    24 ar
     6    23    24 ar
     7    23     9 1
     8     9     4 ar
     9     9    29 ar
    10     4    22 ar
    11    29    30 ar
    12     3     5 ar
    13     3     2 ar
    14     5     6 ar
    15    22     2 1
    16    22    21 1
    17     2     8 ar
    18    30    21 2
    19    30    31 1
    20    21    64 1
    21    35    31 ar
    22    35    34 ar
    23     6     7 ar
    24    31     1 ar
    25     8     7 ar
    26    34    33 ar
    27    64    20 1
    28     1    32 ar
    29    33    32 ar
    30    20    19 1
    31    19    18 ar
    32    19    10 ar
    33    18    17 ar
    34    10    11 ar
    35    17    12 ar
    36    11    12 ar
    37    12    13 1
    38    16    13 1
    39    15    13 2
    40    13    14 2
    41     1    36 1
    42     3    37 1
    43     4    38 1
    44     5    39 1
    45     6    40 1
    46     7    41 1
    47     8    42 1
    48    10    43 1
    49    11    44 1
    50    16    45 1
    51    16    46 1
    52    17    47 1
    53    18    48 1
    54    20    49 1
    55    20    50 1
    56    64    51 1
    57    64    52 1
    58    24    53 1
    59    25    54 1
    60    26    55 1
    61    27    56 1
    62    28    57 1
    63    29    58 1
    64    32    59 1
    65    33    60 1
    66    34    61 1
    67    35    62 1
    68    63    16 1
@<TRIPOS>SUBSTRUCTURE
     1 BVE         1 TEMP              0 ****  ****    0 ROOT
