@<TRIPOS>MOLECULE
molecule
   16    16     1     0     0
SMALL
bcc


@<TRIPOS>ATOM
      1 C1           0.0000     0.0000     0.0000 ca         1 BVF       0.432200
      2 C2           1.3800     0.0000     0.0000 ca         1 BVF      -0.265300
      3 C3           2.0600     0.0000     1.2120 ca         1 BVF      -0.046300
      4 C4           1.3230    -0.0050     2.3810 ca         1 BVF      -0.258300
      5 C5          -0.0660     0.0010     2.3070 ca         1 BVF       0.678200
      6 N6          -0.6780     0.0010     1.1320 nb         1 BVF      -0.716000
      7 N7          -0.8190     0.0010     3.4760 nv         1 BVF      -1.084500
      8 C8           3.5660    -0.0010     1.2490 c3         1 BVF      -0.050800
      9 H1          -0.5340    -0.0000    -0.9420 h4         1 BVF       0.020100
     10 H2           1.9280     0.0010    -0.9350 ha         1 BVF       0.137000
     11 H4           1.8210    -0.0050     3.3440 ha         1 BVF       0.142000
     12 HN71        -1.1070    -0.8650     3.8850 hn         1 BVF       0.434800
     13 HN72        -1.1030     0.8680     3.8880 hn         1 BVF       0.434800
     14 H81          3.9080    -0.7190     1.9850 hc         1 BVF       0.047367
     15 H82          3.9210     0.9870     1.5160 hc         1 BVF       0.047367
     16 H83          3.9510    -0.2720     0.2740 hc         1 BVF       0.047367
@<TRIPOS>BOND
     1     1     2 ar
     2     1     6 ar
     3     1     9 1
     4     2     3 ar
     5     2    10 1
     6     3     4 ar
     7     3     8 1
     8     4     5 ar
     9     4    11 1
    10     5     6 ar
    11     5     7 1
    12     7    12 1
    13     7    13 1
    14     8    14 1
    15     8    15 1
    16     8    16 1
@<TRIPOS>SUBSTRUCTURE
     1 BVF         1 TEMP              0 ****  ****    0 ROOT
