@<TRIPOS>MOLECULE
BVG
   13    13     1     0     0
SMALL
bcc


@<TRIPOS>ATOM
      1 O7         -0.0050   -0.0010    0.0330 oh        1 BVG     -0.616800
      2 C6          1.4170   -0.0000    0.0020 c3        1 BVG      0.110100
      3 C4          1.9360   -0.0010    1.4060 cc        1 BVG      0.377800
      4 N5          3.2560   -0.0030    1.7420 nd        1 BVG     -0.669000
      5 N3          1.1290    0.0010    2.5520 na        1 BVG     -0.286900
      6 C2          1.9800    0.0000    3.6520 cc        1 BVG     -0.260600
      7 C1          3.2910   -0.0030    3.1310 cd        1 BVG      0.291200
      8 HO7        -0.2920   -0.0010   -0.8880 ho        1 BVG      0.415000
      9 H61         1.7880   -0.9180   -0.5310 h1        1 BVG      0.052700
     10 H62         1.7870    0.9190   -0.5300 h1        1 BVG      0.052700
     11 HN3         0.1420    0.0030    2.5540 hn        1 BVG      0.313700
     12 H2          1.6140    0.0020    4.6750 h4        1 BVG      0.177000
     13 H1          4.2340   -0.0040    3.6760 h4        1 BVG      0.042100
@<TRIPOS>BOND
     1    1    2 1   
     2    1    8 1   
     3    2    3 1   
     4    2    9 1   
     5    2   10 1   
     6    3    4 2   
     7    3    5 1   
     8    4    7 1   
     9    5    6 1   
    10    5   11 1   
    11    6    7 2   
    12    6   12 1   
    13    7   13 1   
@<TRIPOS>SUBSTRUCTURE
     1 BVG         1 TEMP              0 ****  ****    0 ROOT
