@<TRIPOS>MOLECULE
molecule
   13    13     1     0     0
SMALL
bcc


@<TRIPOS>ATOM
      1 O7           0.0000     0.0000     0.0000 oh         1 BVG      -0.627800
      2 C6           1.4300     0.0000     0.0000 c3         1 BVG       0.129100
      3 C4           1.9320     0.0000     1.4200 cc         1 BVG       0.398800
      4 N5           3.1860    -0.0060     1.7830 nd         1 BVG      -0.700000
      5 N3           1.1600     0.0010     2.5290 na         1 BVG      -0.274900
      6 C2           2.0020    -0.0000     3.6090 cc         1 BVG      -0.279600
      7 C1           3.2580    -0.0010     3.1230 cd         1 BVG       0.313200
      8 HO7         -0.3140     0.0000    -0.8890 ho         1 BVG       0.417000
      9 H61          1.7910    -0.8850    -0.5110 h1         1 BVG       0.049700
     10 H62          1.7910     0.8850    -0.5110 h1         1 BVG       0.049700
     11 HN3          0.1600     0.0010     2.5560 hn         1 BVG       0.310700
     12 H2           1.7130     0.0020     4.6530 h4         1 BVG       0.174000
     13 H1           4.1680    -0.0030     3.7110 h4         1 BVG       0.041100
@<TRIPOS>BOND
     1     1     2 1
     2     1     8 1
     3     2     3 1
     4     2     9 1
     5     2    10 1
     6     3     4 2
     7     3     5 1
     8     4     7 1
     9     5     6 1
    10     5    11 1
    11     6     7 2
    12     6    12 1
    13     7    13 1
@<TRIPOS>SUBSTRUCTURE
     1 BVG         1 TEMP              0 ****  ****    0 ROOT
