@<TRIPOS>MOLECULE
molecule
   64    68     1     0     0
SMALL
bcc


@<TRIPOS>ATOM
      1 C13          0.0000     0.0000     0.0000 ce         1 BVJ      -0.033200
      2 C18         -2.6640    -2.9590     1.3070 c3         1 BVJ       0.103000
      3 C15         -2.2660    -0.8930     0.0340 c          1 BVJ       0.677300
      4 C20         -4.5260    -1.8510     0.0390 c3         1 BVJ       0.105000
      5 C21         -5.3950    -2.1640     1.2320 ca         1 BVJ      -0.084300
      6 C22         -4.8760    -2.6270     2.4210 ca         1 BVJ      -0.059300
      7 C23         -3.4020    -2.8410     2.6400 c3         1 BVJ      -0.055100
      8 C24         -6.7640    -1.9720     1.1040 ca         1 BVJ      -0.111000
      9 C34         -6.7320     0.9530    -3.2180 ca         1 BVJ      -0.127000
     10 C27         -5.7320    -2.9080     3.4780 ca         1 BVJ      -0.129000
     11 C33         -7.1550     2.1820    -3.6850 ca         1 BVJ      -0.132000
     12 Cl1          3.3360    -0.0000     3.9750 cl         1 BVJ      -0.065400
     13 C2           3.7590     0.0000     0.0000 ca         1 BVJ      -0.154000
     14 C3           4.0240     0.0000     1.3570 ca         1 BVJ      -0.075000
     15 C4           2.9870     0.0000     2.2750 ca         1 BVJ      -0.018600
     16 C5           1.6730     0.0010     1.8420 ca         1 BVJ       0.167900
     17 C6           1.3920     0.0010     0.4690 ca         1 BVJ      -0.088800
     18 C7           2.4500     0.0000    -0.4540 ca         1 BVJ       0.050800
     19 N8           2.1830    -0.0010    -1.8270 na         1 BVJ      -0.003500
     20 C9           3.0810    -0.0080    -2.8380 cd         1 BVJ       0.412400
     21 N10          2.4050    -0.0110    -3.9570 nc         1 BVJ      -0.402000
     22 N11          1.1420    -0.0080    -3.7240 nc         1 BVJ       0.008000
     23 N12          0.9240    -0.0020    -2.4530 nd         1 BVJ      -0.199800
     24 C14         -0.8800    -0.8960     0.4970 cf         1 BVJ      -0.216200
     25 O16         -2.6540    -0.0180    -0.7190 o          1 BVJ      -0.588100
     26 N19         -3.1150    -1.8560     0.4410 n          1 BVJ      -0.477800
     27 C25         -7.6110    -2.2480     2.1580 ca         1 BVJ      -0.123000
     28 C26         -7.0920    -2.7200     3.3490 ca         1 BVJ      -0.119000
     29 C28         -4.8880    -0.4920    -0.5020 c          1 BVJ       0.682100
     30 O29         -4.7950     0.4880     0.2070 o          1 BVJ      -0.574100
     31 C30         -5.1790     2.0480    -1.7450 ca         1 BVJ      -0.127000
     32 C31         -5.6010     3.2760    -2.2110 ca         1 BVJ      -0.132000
     33 C32         -6.5900     3.3470    -3.1830 ca         1 BVJ       0.047600
     34 C35         -5.7430     0.8820    -2.2470 ca         1 BVJ       0.046600
     35 N36         -5.3140    -0.3650    -1.7740 ns         1 BVJ      -0.468100
     36 C38         -8.2930     4.7580    -4.0650 c          1 BVJ       0.747100
     37 O39         -8.6760     5.9210    -4.6260 os         1 BVJ      -0.441900
     38 O40         -9.0960     3.8560    -3.9280 o          1 BVJ      -0.601000
     39 C41        -10.0620     6.0260    -5.0420 c3         1 BVJ       0.158700
     40 H45         -0.3220     0.7210    -0.7420 ha         1 BVJ       0.191000
     41 H48         -2.9000    -3.9080     0.8420 h1         1 BVJ       0.056200
     42 H47         -1.5970    -2.8800     1.4720 h1         1 BVJ       0.056200
     43 H49         -4.6840    -2.6020    -0.7260 h1         1 BVJ       0.057700
     44 H50         -3.2660    -3.7640     3.1910 hc         1 BVJ       0.063700
     45 H51         -3.0060    -1.9870     3.1780 hc         1 BVJ       0.063700
     46 H52         -7.1700    -1.6020     0.1700 ha         1 BVJ       0.137000
     47 H59         -7.1730     0.0440    -3.6100 ha         1 BVJ       0.158500
     48 H55         -5.3280    -3.2780     4.4130 ha         1 BVJ       0.130000
     49 H58         -7.9270     2.2370    -4.4430 ha         1 BVJ       0.148000
     50 H42          4.5780    -0.0000    -0.7100 ha         1 BVJ       0.147000
     51 H43          5.0500    -0.0000     1.7050 ha         1 BVJ       0.162000
     52 H44          4.1590    -0.0090    -2.7400 h5         1 BVJ       0.082100
     53 H46         -0.5590    -1.6140     1.2420 ha         1 BVJ       0.134000
     54 H53         -8.6790    -2.0980     2.0520 ha         1 BVJ       0.135000
     55 H54         -7.7520    -2.9380     4.1800 ha         1 BVJ       0.131000
     56 H56         -4.4070     1.9920    -0.9870 ha         1 BVJ       0.158500
     57 H57         -5.1610     4.1850    -1.8190 ha         1 BVJ       0.148000
     58 H60         -5.2910    -1.1530    -2.3900 hn         1 BVJ       0.320500
     59 H61         -6.3750     5.3570    -3.7080 hn         1 BVJ       0.332500
     60 H62        -10.2570     5.3130    -5.8340 h1         1 BVJ       0.049700
     61 H64        -10.2550     7.0290    -5.4040 h1         1 BVJ       0.049700
     62 H63        -10.7100     5.8160    -4.2000 h1         1 BVJ       0.049700
     63 F17          0.6640     0.0000     2.7400 f          1 BVJ      -0.107900
     64 N37         -7.0190     4.5930    -3.6570 ns         1 BVJ      -0.458100
@<TRIPOS>BOND
     1    21    20 2
     2    21    22 1
     3    20    19 1
     4    22    23 2
     5    19    23 1
     6    19    18 1
     7     7     2 1
     8     7     6 1
     9    13    18 ar
    10    13    14 ar
    11    18    17 ar
    12     2    26 1
    13    10     6 ar
    14    10    28 ar
    15     6     5 ar
    16    14    15 ar
    17    17     1 1
    18    17    16 ar
    19    30    29 2
    20     1    24 2
    21    28    27 ar
    22    26     3 1
    23    26     4 1
    24    24     3 1
    25    15    16 ar
    26    15    12 1
    27    16    63 1
    28     5     4 1
    29     5     8 ar
    30     3    25 2
    31    29     4 1
    32    29    35 1
    33    27     8 ar
    34     9    11 ar
    35     9    34 ar
    36    38    36 2
    37    11    33 ar
    38    35    34 1
    39    34    31 ar
    40    39    37 1
    41    36    37 1
    42    36    64 1
    43    33    64 1
    44    33    32 ar
    45    31    32 ar
    46     1    40 1
    47     2    41 1
    48     2    42 1
    49     4    43 1
    50     7    44 1
    51     7    45 1
    52     8    46 1
    53     9    47 1
    54    10    48 1
    55    11    49 1
    56    13    50 1
    57    14    51 1
    58    20    52 1
    59    24    53 1
    60    27    54 1
    61    28    55 1
    62    31    56 1
    63    32    57 1
    64    35    58 1
    65    64    59 1
    66    39    60 1
    67    39    61 1
    68    39    62 1
@<TRIPOS>SUBSTRUCTURE
     1 BVJ         1 TEMP              0 ****  ****    0 ROOT
