@<TRIPOS>MOLECULE
BVJ
   64    70     1     0     0
SMALL
bcc


@<TRIPOS>ATOM
      1 C13          0.0000     0.0000     0.0000 c2         1 BVJ       0.091000
      2 C18         -2.6640    -2.9590     1.3070 c3         1 BVJ      -0.061000
      3 C15         -2.2660    -0.8930     0.0340 c3         1 BVJ       0.356000
      4 C20         -4.5260    -1.8510     0.0390 c3         1 BVJ       0.006000
      5 C21         -5.3950    -2.1640     1.2320 ca         1 BVJ      -0.081000
      6 C22         -4.8760    -2.6270     2.4210 ca         1 BVJ      -0.061000
      7 C23         -3.4020    -2.8410     2.6400 c3         1 BVJ      -0.068000
      8 C24         -6.7640    -1.9720     1.1040 ca         1 BVJ      -0.085000
      9 C34         -6.7320     0.9530    -3.2180 ca         1 BVJ      -0.101000
     10 C27         -5.7320    -2.9080     3.4780 ca         1 BVJ      -0.101000
     11 C33         -7.1550     2.1820    -3.6850 ca         1 BVJ      -0.103500
     12 Cl1          3.3360    -0.0000     3.9750 cl         1 BVJ       0.112000
     13 C2           3.7590     0.0000     0.0000 c2         1 BVJ      -0.090000
     14 C3           4.0240     0.0000     1.3570 c2         1 BVJ      -0.076000
     15 C4           2.9870     0.0000     2.2750 c2         1 BVJ      -0.137000
     16 C5           1.6730     0.0010     1.8420 c2         1 BVJ       0.079000
     17 C6           1.3920     0.0010     0.4690 c3         1 BVJ       0.007000
     18 C7           2.4500     0.0000    -0.4540 c2         1 BVJ      -0.138000
     19 N8           2.1830    -0.0010    -1.8270 na         1 BVJ       0.336000
     20 C9           3.0810    -0.0080    -2.8380 c2         1 BVJ      -0.231000
     21 N10          2.4050    -0.0110    -3.9570 n2         1 BVJ      -0.116000
     22 N11          1.1420    -0.0080    -3.7240 n2         1 BVJ       0.044000
     23 N12          0.9240    -0.0020    -2.4530 n2         1 BVJ      -0.227000
     24 C14         -0.8800    -0.8960     0.4970 c2         1 BVJ      -0.146000
     25 O16         -2.6540    -0.0180    -0.7190 o          1 BVJ      -0.410000
     26 N19         -3.1150    -1.8560     0.4410 n3         1 BVJ      -0.028000
     27 C25         -7.6110    -2.2480     2.1580 ca         1 BVJ      -0.095000
     28 C26         -7.0920    -2.7200     3.3490 ca         1 BVJ      -0.091000
     29 C28         -4.8880    -0.4920    -0.5020 c2         1 BVJ       0.220000
     30 O29         -4.7950     0.4880     0.2070 o          1 BVJ      -0.367000
     31 C30         -5.1790     2.0480    -1.7450 ca         1 BVJ      -0.101000
     32 C31         -5.6010     3.2760    -2.2110 ca         1 BVJ      -0.103500
     33 C32         -6.5900     3.3470    -3.1830 ca         1 BVJ      -0.097000
     34 C35         -5.7430     0.8820    -2.2470 ca         1 BVJ      -0.093000
     35 N36         -5.3140    -0.3650    -1.7740 ns         1 BVJ       0.130000
     36 C38         -8.2930     4.7580    -4.0650 c2         1 BVJ       0.317000
     37 O39         -8.6760     5.9210    -4.6260 os         1 BVJ      -0.269000
     38 O40         -9.0960     3.8560    -3.9280 o          1 BVJ      -0.461000
     39 C41        -10.0620     6.0260    -5.0420 c3         1 BVJ       0.098000
     40 H45          0.7550    -0.7030    -0.3300 DU         1 BVJ       0.035000
     41 H48         -1.5970    -2.8800     1.4720 h1         1 BVJ       0.067000
     42 H47         -2.9000    -3.9080     0.8420 h1         1 BVJ       0.067000
     43 H49         -4.6840    -2.6020    -0.7260 h1         1 BVJ       0.066000
     44 H50         -3.2660    -3.7640     3.1910 hc         1 BVJ       0.074000
     45 H51         -3.0060    -1.9870     3.1780 hc         1 BVJ       0.074000
     46 H52         -7.1700    -1.6020     0.1700 ha         1 BVJ       0.107000
     47 H59         -7.1730     0.0440    -3.6100 ha         1 BVJ       0.135500
     48 H55         -5.3280    -3.2780     4.4130 ha         1 BVJ       0.105000
     49 H58         -7.9270     2.2370    -4.4430 ha         1 BVJ       0.124000
     50 H42          4.5780    -0.0000    -0.7100 ha         1 BVJ       0.120000
     51 H43          5.0500    -0.0000     1.7050 ha         1 BVJ       0.127000
     52 H44          4.1590    -0.0090    -2.7400 h5         1 BVJ       0.176000
     53 H46         -1.2100    -1.3170    -0.4460 DU         1 BVJ       0.041000
     54 H53         -8.6790    -2.0980     2.0520 ha         1 BVJ       0.106000
     55 H54         -7.7520    -2.9380     4.1800 ha         1 BVJ       0.103000
     56 H56         -4.4070     1.9920    -0.9870 ha         1 BVJ       0.135500
     57 H57         -5.1610     4.1850    -1.8190 ha         1 BVJ       0.124000
     58 H60         -5.2930    -1.1540    -2.3900 hn         1 BVJ       0.075000
     59 H61         -6.3750     5.3570    -3.7080 hn         1 BVJ       0.080000
     60 H62        -10.2560     5.3140    -5.8350 h1         1 BVJ       0.039000
     61 H64        -10.2560     7.0300    -5.4030 h1         1 BVJ       0.039000
     62 H63        -10.7100     5.8150    -4.2000 h1         1 BVJ       0.039000
     63 F17          0.6640     0.0000     2.7400 f          1 BVJ      -0.064000
     64 N37         -7.0190     4.5930    -3.6570 ns         1 BVJ       0.146000
@<TRIPOS>BOND
     1     1    17 1   
     2     1    24 1   
     3     1    40 1   
     4     2     7 1   
     5     2    26 1   
     6     2    41 1   
     7     2    42 1   
     8     3    24 1   
     9     3    25 1   
    10     3    26 1   
    11     3    53 1   
    12     4     5 1   
    13     4    26 1   
    14     4    29 1   
    15     4    43 1   
    16     5     6 1   
    17     5     8 1   
    18     6     7 1   
    19     6    10 1   
    20     7    44 1   
    21     7    45 1   
    22     8    27 1   
    23     8    46 1   
    24     9    11 1   
    25     9    34 1   
    26     9    47 1   
    27    10    28 1   
    28    10    48 1   
    29    11    33 1   
    30    11    49 1   
    31    12    15 1   
    32    13    14 1   
    33    13    18 1   
    34    13    50 1   
    35    14    15 1   
    36    14    51 1   
    37    15    16 1   
    38    16    17 1   
    39    16    63 1   
    40    17    18 1   
    41    17    40 1   
    42    18    19 1   
    43    19    20 1   
    44    19    23 1   
    45    20    21 1   
    46    20    52 1   
    47    21    22 1   
    48    22    23 1   
    49    24    53 1   
    50    27    28 1   
    51    27    54 1   
    52    28    55 1   
    53    29    30 1   
    54    29    35 1   
    55    31    32 1   
    56    31    34 1   
    57    31    56 1   
    58    32    33 1   
    59    32    57 1   
    60    33    64 1   
    61    34    35 1   
    62    35    58 1   
    63    36    37 1   
    64    36    38 1   
    65    36    64 1   
    66    37    39 1   
    67    39    60 1   
    68    39    61 1   
    69    39    62 1   
    70    59    64 1   
@<TRIPOS>SUBSTRUCTURE
     1 BVJ         1 TEMP              0 ****  ****    0 ROOT
