@<TRIPOS>MOLECULE
molecule
   23    23     1     0     0
SMALL
bcc


@<TRIPOS>ATOM
      1 N1           0.0000     0.0000     0.0000 nz         1 BVK      -0.812600
      2 C2           2.6610     0.6520     3.5230 ca         1 BVK      -0.114500
      3 C3           2.2010     0.0000     2.3940 ca         1 BVK      -0.103000
      4 C4           1.9700     0.7110     1.2310 ca         1 BVK      -0.246300
      5 C5           2.2010     2.0740     1.1960 ca         1 BVK      -0.103000
      6 C6           2.6610     2.7250     2.3250 ca         1 BVK      -0.114500
      7 C            4.8950     2.7310     4.7180 c          1 BVK       0.893600
      8 O            5.5660     3.3130     5.7240 o          1 BVK      -0.818800
      9 C1           2.8860     2.0150     3.4900 ca         1 BVK       0.061700
     10 C7           1.4690     0.0000     0.0000 c3         1 BVK       0.164100
     11 H1          -0.3340     0.9440     0.0000 hn         1 BVK       0.443467
     12 H2          -0.3340    -0.4720    -0.8170 hn         1 BVK       0.443467
     13 H4           2.8400     0.0950     4.4350 ha         1 BVK       0.156000
     14 H5           2.0230    -1.0680     2.4200 ha         1 BVK       0.113000
     15 H6           2.0220     2.6300     0.2840 ha         1 BVK       0.113000
     16 H7           2.8390     3.7930     2.2990 ha         1 BVK       0.156000
     17 H8           3.0240     3.7460     4.7220 hc         1 BVK       0.056200
     18 H9           3.0300     2.2130     5.6050 hc         1 BVK       0.056200
     19 H11          1.8300     0.5110    -0.8840 hx         1 BVK       0.100700
     20 H12          1.8300    -1.0210     0.0000 hx         1 BVK       0.100700
     21 O1           5.4990     2.2120     3.8090 o          1 BVK      -0.818800
     22 CA           3.3880     2.7260     4.7200 c3         1 BVK      -0.172100
     23 H13         -0.3340    -0.4720     0.8170 hn         1 BVK       0.443467
@<TRIPOS>BOND
     1     7    22 1
     2     7     8 1
     3    22     9 1
     4     9     2 ar
     5     9     6 ar
     6     2     3 ar
     7     6     5 ar
     8     3     4 ar
     9     5     4 ar
    10     4    10 1
    11    10     1 1
    12     1    11 1
    13     1    12 1
    14     2    13 1
    15     3    14 1
    16     5    15 1
    17     6    16 1
    18    22    17 1
    19    22    18 1
    20    10    19 1
    21    10    20 1
    22     7    21 1
    23    23     1 1
@<TRIPOS>SUBSTRUCTURE
     1 BVK         1 TEMP              0 ****  ****    0 ROOT
