@<TRIPOS>MOLECULE
molecule
   47    48     1     0     0
SMALL
bcc


@<TRIPOS>ATOM
      1 C2           0.0000     0.0000     0.0000 ca         1 BVL      -0.094500
      2 C4           0.0100     0.0090     2.3970 ca         1 BVL       0.116100
      3 C5           1.4010     0.0100     2.4030 ca         1 BVL      -0.156500
      4 C6           2.0960     0.0000     1.2140 ca         1 BVL      -0.094500
      5 O24          3.6140     0.0010    -3.5910 o          1 BVL      -0.523100
      6 C9           4.2210     0.0020    -2.5340 c          1 BVL       0.580900
      7 C8           3.4880     0.0010    -1.2700 ce         1 BVL      -0.265200
      8 C1           1.4000     0.0000     0.0000 ca         1 BVL      -0.088800
      9 C3          -0.6850     0.0040     1.1930 ca         1 BVL      -0.156500
     10 O25         -0.6700     0.0190     3.5720 oh         1 BVL      -0.522100
     11 C10          5.6950     0.0020    -2.5320 ca         1 BVL      -0.224600
     12 C11          6.4020     0.0080    -3.7450 ca         1 BVL       0.208100
     13 O23          5.7310     0.0090    -4.9240 oh         1 BVL      -0.485100
     14 C12          7.7850     0.0140    -3.7330 ca         1 BVL      -0.296000
     15 C13          8.4710     0.0140    -2.5270 ca         1 BVL       0.190100
     16 O21          9.8270     0.0190    -2.5200 os         1 BVL      -0.321900
     17 C22         10.4830     0.0260    -3.7900 c3         1 BVL       0.125700
     18 C14          7.7710     0.0070    -1.3230 ca         1 BVL      -0.134300
     19 C15          6.3960     0.0020    -1.3210 ca         1 BVL      -0.036000
     20 C16          8.5240     0.0070    -0.0180 c3         1 BVL       0.007100
     21 C17          8.8750     1.4230     0.3600 c2         1 BVL      -0.171200
     22 C18          8.4630     1.9190     1.4990 c2         1 BVL      -0.135400
     23 C20          8.9220     3.2850     1.9370 c3         1 BVL      -0.050900
     24 C19          7.5280     1.1230     2.3730 c3         1 BVL      -0.050900
     25 H2          -0.5430    -0.0020    -0.9380 ha         1 BVL       0.138000
     26 H5           1.9380     0.0120     3.3440 ha         1 BVL       0.142500
     27 H6           3.1790     0.0000     1.2190 ha         1 BVL       0.138000
     28 H8           4.0280     0.0020    -0.3310 ha         1 BVL       0.132000
     29 H7           1.5960    -0.0010    -2.2100 ha         1 BVL       0.156000
     30 H3          -1.7690     0.0040     1.1950 ha         1 BVL       0.142500
     31 HO25        -0.8480     0.9100     3.8250 ho         1 BVL       0.422000
     32 HO23         5.9920    -0.7390    -5.4350 ho         1 BVL       0.423000
     33 H12          8.3340     0.0180    -4.6670 ha         1 BVL       0.145000
     34 H22         10.1900     0.9100    -4.3430 h1         1 BVL       0.044700
     35 H22A        11.5560     0.0320    -3.6420 h1         1 BVL       0.044700
     36 H22B        10.2000    -0.8590    -4.3470 h1         1 BVL       0.044700
     37 H15          5.8560    -0.0030    -0.3820 ha         1 BVL       0.142000
     38 H16          9.4320    -0.5740    -0.1250 hc         1 BVL       0.058700
     39 H16A         7.9050    -0.4300     0.7570 hc         1 BVL       0.058700
     40 H17          9.5470     1.9970    -0.2670 ha         1 BVL       0.132000
     41 H20          8.5030     3.5130     2.9090 hc         1 BVL       0.040200
     42 H20A        10.0040     3.3010     1.9980 hc         1 BVL       0.040200
     43 H20B         8.5910     4.0250     1.2180 hc         1 BVL       0.040200
     44 H19          6.5840     0.9850     1.8600 hc         1 BVL       0.040200
     45 H19A         7.9680     0.1560     2.5860 hc         1 BVL       0.040200
     46 H19B         7.3600     1.6560     3.3020 hc         1 BVL       0.040200
     47 C7           2.1370     0.0000    -1.2710 cf         1 BVL      -0.027200
@<TRIPOS>BOND
     1    17    16 1
     2    16    15 1
     3     9     1 ar
     4     9     2 ar
     5    13    12 1
     6    14    15 ar
     7    14    12 ar
     8     1     8 ar
     9    10     2 1
    10     2     3 ar
    11    15    18 ar
    12    12    11 ar
    13     8    47 1
    14     8     4 ar
    15     3     4 ar
    16    18    20 1
    17    18    19 ar
    18    47     7 2
    19    20    21 1
    20    11    19 ar
    21    11     6 1
    22     6     7 1
    23     6     5 2
    24    23    22 1
    25    21    22 2
    26    22    24 1
    27     1    25 1
    28     3    26 1
    29     4    27 1
    30     7    28 1
    31    47    29 1
    32     9    30 1
    33    10    31 1
    34    13    32 1
    35    14    33 1
    36    17    34 1
    37    17    35 1
    38    17    36 1
    39    19    37 1
    40    20    38 1
    41    20    39 1
    42    21    40 1
    43    23    41 1
    44    23    42 1
    45    23    43 1
    46    24    44 1
    47    24    45 1
    48    24    46 1
@<TRIPOS>SUBSTRUCTURE
     1 BVL         1 TEMP              0 ****  ****    0 ROOT
