@<TRIPOS>MOLECULE
BVL
   47    46     1     0     0
SMALL
bcc


@<TRIPOS>ATOM
      1 C2          2.5100    0.3270    5.1400 c1        1 BVL      0.234000
      2 C4          1.6920    0.2850    2.7880 c2        1 BVL      0.077000
      3 C5          2.8280    0.3550    2.0760 c2        1 BVL     -0.243000
      4 C6          1.1380    0.3270   -1.1140 cu        1 BVL     -0.122500
      5 O24         4.1000    0.3450   -4.1040 o         1 BVL     -0.411000
      6 C9          4.5590    0.1220   -2.9600 c2        1 BVL      0.358000
      7 C8          3.7180    0.0690   -1.7690 c2        1 BVL     -0.258000
      8 C1          1.1490    0.5060   -2.4420 cu        1 BVL     -0.122500
      9 C3          1.5820    0.5070    4.2210 c2        1 BVL     -0.487000
     10 O25         0.5050    0.0430    2.1080 oh        1 BVL     -0.283000
     11 C10         6.0020   -0.1050   -2.7570 c2        1 BVL     -0.354000
     12 C11         6.9040   -0.0930   -3.8430 c2        1 BVL      0.310000
     13 O23         6.5970    0.1360   -5.1330 oh        1 BVL     -0.242000
     14 C12         8.3070   -0.3480   -3.6420 c2        1 BVL     -0.347000
     15 C13         8.7830   -0.5790   -2.3840 c2        1 BVL      0.148000
     16 O21        10.0820   -0.8540   -2.0830 os        1 BVL     -0.195000
     17 C22        11.0160   -0.8710   -3.1650 c3        1 BVL     -0.087000
     18 C14         7.8780   -0.5820   -1.1750 c3        1 BVL     -0.059000
     19 C15         6.4660   -0.3230   -1.4660 c1        1 BVL     -0.115000
     20 C16         8.4290    0.3270   -0.1210 c2        1 BVL     -0.096000
     21 C17         7.7560    1.2660    0.4760 c1        1 BVL     -0.131000
     22 C18         7.0940    2.2070    1.0990 c2        1 BVL     -0.047000
     23 C20         7.0640    3.6100    0.6100 c3        1 BVL     -0.175500
     24 C19         6.3240    1.9370    2.3410 c3        1 BVL     -0.175500
     25 H2          0.6540    0.7000   -3.3720 ha        1 BVL      0.207000
     26 H5          3.7860    0.6230    2.5370 ha        1 BVL      0.142000
     27 H6          2.8450    0.1660    0.9930 ha        1 BVL      0.142000
     28 H8          0.6290    0.2710   -0.1680 ha        1 BVL      0.207000
     29 H7          4.2450   -0.1320   -0.8160 ha        1 BVL      0.187000
     30 H3          0.5960    0.8940    4.5620 ha        1 BVL      0.200000
     31 HO25       -0.0510   -0.5030    2.6800 ho        1 BVL      0.217000
     32 HO23        5.6380    0.3030   -5.2470 ho        1 BVL      0.289000
     33 H12         8.9520   -0.3450   -4.5330 ha        1 BVL      0.160000
     34 H22        10.7430   -1.6680   -3.8990 h1        1 BVL      0.094667
     35 H22A       11.0530    0.1280   -3.6620 h1        1 BVL      0.094667
     36 H22B       11.9880   -1.1050   -2.6630 h1        1 BVL      0.094667
     37 H15         7.9020   -1.6410   -0.7520 hc        1 BVL      0.166000
     38 H16         5.5020   -0.8760    0.8260 ha        1 BVL      0.000500
     39 H16A        9.4870    0.1320    0.1320 ha        1 BVL      0.143000
     40 H17         5.0850   -0.9670    1.3560 ha        1 BVL      0.000500
     41 H20         7.7580    3.7620   -0.2520 hc        1 BVL      0.084000
     42 H20A        7.3590    4.3060    1.4340 hc        1 BVL      0.084000
     43 H20B        6.0270    3.8700    0.2800 hc        1 BVL      0.084000
     44 H19         6.8680    2.3570    3.2230 hc        1 BVL      0.084000
     45 H19A        6.1750    0.8400    2.4970 hc        1 BVL      0.084000
     46 H19B        5.3200    2.4260    2.2780 hc        1 BVL      0.084000
     47 C7          2.4060    0.2480   -1.7910 cu        1 BVL     -0.028000
@<TRIPOS>BOND
     1    1    9 1   
     2    2    3 1   
     3    2    9 1   
     4    2   10 1   
     5    3   26 1   
     6    3   27 1   
     7    4    8 1   
     8    4   28 1   
     9    4   47 1   
    10    5    6 1   
    11    6    7 1   
    12    6   11 1   
    13    7   29 1   
    14    7   47 1   
    15    8   25 1   
    16    8   47 1   
    17    9   30 1   
    18   10   31 1   
    19   11   12 1   
    20   11   19 1   
    21   12   13 1   
    22   12   14 1   
    23   13   32 1   
    24   14   15 1   
    25   14   33 1   
    26   15   16 1   
    27   15   18 1   
    28   16   17 1   
    29   17   34 1   
    30   17   35 1   
    31   17   36 1   
    32   18   19 1   
    33   18   20 1   
    34   18   37 1   
    35   20   21 1   
    36   20   39 1   
    37   21   22 1   
    38   22   23 1   
    39   22   24 1   
    40   23   41 1   
    41   23   42 1   
    42   23   43 1   
    43   24   44 1   
    44   24   45 1   
    45   24   46 1   
    46   38   40 1   
@<TRIPOS>SUBSTRUCTURE
     1 BVL         1 TEMP              0 ****  ****    0 ROOT
