@<TRIPOS>MOLECULE
BVM
   84    91     1     0     0
SMALL
bcc


@<TRIPOS>ATOM
      1 C13          0.0000     0.0000     0.0000 c2         1 BVM       0.090000
      2 C18         -4.7480     0.5810     0.9970 c3         1 BVM       0.002000
      3 C15         -2.3970    -0.1260     0.4180 c3         1 BVM       0.359000
      4 C19         -5.3350     1.6390     1.8980 ca         1 BVM      -0.076000
      5 C20         -4.7100     2.0530     3.0500 ca         1 BVM      -0.002000
      6 C21         -3.3820     1.5070     3.5030 c3         1 BVM      -0.076000
      7 C22         -3.0890     0.1640     2.8350 c3         1 BVM      -0.051000
      8 C23         -6.5530     2.1980     1.5310 ca         1 BVM      -0.070000
      9 C24         -7.1510     3.1670     2.3120 ca         1 BVM      -0.107000
     10 C34         -6.1260    -0.0530    -4.8460 ca         1 BVM      -0.060500
     11 C27         -4.7730     1.0660    -0.4280 c2         1 BVM       0.192000
     12 C33         -5.6960     1.1590    -5.3950 ca         1 BVM      -0.079000
     13 C2           3.7600     0.0000     0.0000 c2         1 BVM      -0.035000
     14 C3           4.0230     0.0000     1.3560 c2         1 BVM      -0.154000
     15 C4           2.9830     0.0000     2.2730 c2         1 BVM      -0.055000
     16 C5           1.6740     0.0010     1.8400 c2         1 BVM      -0.173000
     17 C6           1.3930    -0.0000     0.4700 c3         1 BVM       0.088000
     18 C7           2.4500    -0.0010    -0.4540 c2         1 BVM      -0.197000
     19 N8           2.1840    -0.0010    -1.8280 na         1 BVM       0.336000
     20 C9           2.7470     0.7830    -2.7740 c2         1 BVM      -0.233000
     21 N10          2.2140     0.4500    -3.9200 n2         1 BVM      -0.121000
     22 N11          1.3540    -0.4900    -3.7640 n2         1 BVM       0.055000
     23 N12          1.2760    -0.8220    -2.5200 n2         1 BVM      -0.237000
     24 C14         -1.0100    -0.1320     0.8850 c2         1 BVM      -0.180000
     25 O16         -2.6370    -0.0920    -0.7750 o          1 BVM      -0.309000
     26 N17         -3.3640     0.3070     1.3950 n3         1 BVM      -0.060000
     27 C25         -6.5390     3.5880     3.4750 ca         1 BVM      -0.082000
     28 C26         -5.3170     3.0330     3.8490 ca         1 BVM      -0.138000
     29 O28         -3.9280     1.8430    -0.8200 o          1 BVM      -0.352000
     30 N29         -5.7340     0.6370    -1.2700 ns         1 BVM       0.142000
     31 C30         -5.7200     0.8100    -2.6460 ca         1 BVM      -0.138000
     32 C31         -5.2850     2.0160    -3.1890 ca         1 BVM      -0.144000
     33 C32         -5.2750     2.1930    -4.5540 ca         1 BVM      -0.060500
     34 C35         -6.1390    -0.2220    -3.4800 ca         1 BVM      -0.144000
     35 O37         -5.2700     2.5130    -7.3850 o          1 BVM      -0.620000
     36 O38         -6.0500     0.4450    -7.5870 o          1 BVM      -0.620000
     37 C39         -4.6570     3.4800     5.0950 c2         1 BVM       0.293000
     38 O40         -3.5000     3.8490     5.0700 o          1 BVM      -0.401000
     39 N41         -5.3390     3.4760     6.2570 n          1 BVM      -0.016000
     40 C42         -4.7410     4.0360     7.4780 c3         1 BVM      -0.058000
     41 C43         -4.8130     2.9830     8.5890 c3         1 BVM      -0.103000
     42 C44         -6.2610     2.5190     8.7540 c3         1 BVM      -0.096000
     43 C45         -6.7450     1.8780     7.4510 c3         1 BVM      -0.119000
     44 C46         -6.6970     2.9180     6.3270 c3         1 BVM      -0.087000
     45 C47         -4.3260     3.5840     9.8810 c2         1 BVM       0.373000
     46 O48         -3.0750     4.0630     9.9710 os         1 BVM      -0.247000
     47 O49         -5.0620     3.6350    10.8380 o          1 BVM      -0.401000
     48 C50         -2.6750     4.6260    11.2480 c3         1 BVM       0.076000
     49 C51         -1.2270     5.1160    11.1570 c3         1 BVM      -0.122000
     50 H56          0.5520    -0.8920     0.2700 DU         1 BVM       0.050000
     51 H58         -5.3320    -0.3270     1.0830 h1         1 BVM       0.058000
     52 H60         -3.4010     1.3720     4.5770 hc         1 BVM       0.083500
     53 H59         -2.6010     2.2110     3.2410 hc         1 BVM       0.083500
     54 H62         -2.0430    -0.0810     2.9740 h1         1 BVM       0.058000
     55 H61         -3.7490    -0.5880     3.2490 h1         1 BVM       0.058000
     56 H63         -7.0380     1.8720     0.6190 ha         1 BVM       0.117000
     57 H64         -8.1010     3.5940     2.0150 ha         1 BVM       0.109000
     58 H69         -6.4520    -0.8570    -5.4950 ha         1 BVM       0.126000
     59 H52          4.5780    -0.0000    -0.7100 ha         1 BVM       0.112000
     60 H53          5.0480     0.0000     1.7060 ha         1 BVM       0.120000
     61 H54          0.8660     0.0750     2.5580 ha         1 BVM       0.142000
     62 H55          3.4990     1.5460    -2.6120 h5         1 BVM       0.170000
     63 H57         -1.5010    -0.9800     0.4220 DU         1 BVM       0.049000
     64 H65         -7.0040     4.3480     4.0910 ha         1 BVM       0.106000
     65 H66         -6.4660     0.0430    -0.9330 hn         1 BVM       0.050000
     66 H67         -4.9590     2.8170    -2.5360 ha         1 BVM       0.100500
     67 H68         -4.9390     3.1320    -4.9760 ha         1 BVM       0.126000
     68 H70         -6.4710    -1.1610    -3.0530 ha         1 BVM       0.100500
     69 H72         -3.7060     4.2940     7.2890 h1         1 BVM       0.082500
     70 H73         -5.2920     4.9180     7.7790 h1         1 BVM       0.082500
     71 H74         -4.1920     2.1370     8.3210 hc         1 BVM       0.094000
     72 H76         -6.8880     3.3700     8.9910 hc         1 BVM       0.070500
     73 H75         -6.3160     1.7910     9.5550 hc         1 BVM       0.070500
     74 H78         -6.1010     1.0440     7.1980 hc         1 BVM       0.061500
     75 H77         -7.7630     1.5300     7.5770 hc         1 BVM       0.061500
     76 H80         -7.4040     3.7110     6.5370 h1         1 BVM       0.074000
     77 H79         -6.9430     2.4440     5.3840 h1         1 BVM       0.074000
     78 H81         -2.7520     3.8680    12.0180 h1         1 BVM       0.046500
     79 H82         -3.3230     5.4580    11.4950 h1         1 BVM       0.046500
     80 H84         -1.1500     5.8750    10.3880 hc         1 BVM       0.050667
     81 H85         -0.5790     4.2840    10.9110 hc         1 BVM       0.050667
     82 H83         -0.9280     5.5370    12.1100 hc         1 BVM       0.050667
     83 Cl1          3.3300     0.0010     3.9740 cl         1 BVM       0.058000
     84 C36         -5.6850     1.3450    -6.8570 c2         1 BVM       0.422000
@<TRIPOS>BOND
     1     1    17 1   
     2     1    24 1   
     3     1    50 1   
     4     2     4 1   
     5     2    11 1   
     6     2    26 1   
     7     2    51 1   
     8     3    24 1   
     9     3    25 1   
    10     3    26 1   
    11     3    63 1   
    12     4     5 1   
    13     4     8 1   
    14     5     6 1   
    15     5    28 1   
    16     6     7 1   
    17     6    52 1   
    18     6    53 1   
    19     7    26 1   
    20     7    54 1   
    21     7    55 1   
    22     8     9 1   
    23     8    56 1   
    24     9    27 1   
    25     9    57 1   
    26    10    12 1   
    27    10    34 1   
    28    10    58 1   
    29    11    29 1   
    30    11    30 1   
    31    12    33 1   
    32    12    84 1   
    33    13    14 1   
    34    13    18 1   
    35    13    59 1   
    36    14    15 1   
    37    14    60 1   
    38    15    16 1   
    39    15    83 1   
    40    16    17 1   
    41    16    61 1   
    42    17    18 1   
    43    17    50 1   
    44    18    19 1   
    45    19    20 1   
    46    19    23 1   
    47    20    21 1   
    48    20    62 1   
    49    21    22 1   
    50    22    23 1   
    51    24    63 1   
    52    27    28 1   
    53    27    64 1   
    54    28    37 1   
    55    30    31 1   
    56    30    65 1   
    57    31    32 1   
    58    31    34 1   
    59    32    33 1   
    60    32    66 1   
    61    33    67 1   
    62    34    68 1   
    63    35    84 1   
    64    36    84 1   
    65    37    38 1   
    66    37    39 1   
    67    39    40 1   
    68    39    44 1   
    69    40    41 1   
    70    40    69 1   
    71    40    70 1   
    72    41    42 1   
    73    41    45 1   
    74    41    71 1   
    75    42    43 1   
    76    42    72 1   
    77    42    73 1   
    78    43    44 1   
    79    43    74 1   
    80    43    75 1   
    81    44    76 1   
    82    44    77 1   
    83    45    46 1   
    84    45    47 1   
    85    46    48 1   
    86    48    49 1   
    87    48    78 1   
    88    48    79 1   
    89    49    80 1   
    90    49    81 1   
    91    49    82 1   
@<TRIPOS>SUBSTRUCTURE
     1 BVM         1 TEMP              0 ****  ****    0 ROOT
