@<TRIPOS>MOLECULE
molecule
   84    89     1     0     0
SMALL
bcc


@<TRIPOS>ATOM
      1 C13          0.0000     0.0000     0.0000 ce         1 BVM      -0.045200
      2 C18         -4.7480     0.5810     0.9970 c3         1 BVM       0.097000
      3 C15         -2.3970    -0.1260     0.4180 c          1 BVM       0.662300
      4 C19         -5.3350     1.6390     1.8980 ca         1 BVM      -0.079300
      5 C20         -4.7100     2.0530     3.0500 ca         1 BVM      -0.008300
      6 C21         -3.3820     1.5070     3.5030 c3         1 BVM      -0.052100
      7 C22         -3.0890     0.1640     2.8350 c3         1 BVM       0.107000
      8 C23         -6.5530     2.1980     1.5310 ca         1 BVM      -0.095000
      9 C24         -7.1510     3.1670     2.3120 ca         1 BVM      -0.136000
     10 C34         -6.1260    -0.0530    -4.8460 ca         1 BVM      -0.087500
     11 C27         -4.7730     1.0660    -0.4280 c          1 BVM       0.666100
     12 C33         -5.6960     1.1590    -5.3950 ca         1 BVM      -0.108600
     13 C2           3.7600     0.0000     0.0000 ca         1 BVM      -0.124000
     14 C3           4.0230     0.0000     1.3560 ca         1 BVM      -0.113000
     15 C4           2.9830     0.0000     2.2730 ca         1 BVM       0.032400
     16 C5           1.6740     0.0010     1.8400 ca         1 BVM      -0.106000
     17 C6           1.3930    -0.0000     0.4700 ca         1 BVM      -0.029800
     18 C7           2.4500    -0.0010    -0.4540 ca         1 BVM       0.023800
     19 N8           2.1840    -0.0010    -1.8280 na         1 BVM      -0.016500
     20 C9           2.7470     0.7830    -2.7740 cd         1 BVM       0.410400
     21 N10          2.2140     0.4500    -3.9200 nc         1 BVM      -0.400000
     22 N11          1.3540    -0.4900    -3.7640 nc         1 BVM       0.018000
     23 N12          1.2760    -0.8220    -2.5200 nd         1 BVM      -0.199800
     24 C14         -1.0100    -0.1320     0.8850 cf         1 BVM      -0.213200
     25 O16         -2.6370    -0.0920    -0.7750 o          1 BVM      -0.506100
     26 N17         -3.3640     0.3070     1.3950 n          1 BVM      -0.505800
     27 C25         -6.5390     3.5880     3.4750 ca         1 BVM      -0.106000
     28 C26         -5.3170     3.0330     3.8490 ca         1 BVM      -0.151600
     29 O28         -3.9280     1.8430    -0.8200 o          1 BVM      -0.554100
     30 N29         -5.7340     0.6370    -1.2700 ns         1 BVM      -0.463100
     31 C30         -5.7200     0.8100    -2.6460 ca         1 BVM       0.014600
     32 C31         -5.2850     2.0160    -3.1890 ca         1 BVM      -0.170000
     33 C32         -5.2750     2.1930    -4.5540 ca         1 BVM      -0.087500
     34 C35         -6.1390    -0.2220    -3.4800 ca         1 BVM      -0.170000
     35 O37         -5.2700     2.5130    -7.3850 o          1 BVM      -0.839300
     36 O38         -6.0500     0.4450    -7.5870 o          1 BVM      -0.839300
     37 C39         -4.6570     3.4800     5.0950 c          1 BVM       0.681700
     38 O40         -3.5000     3.8490     5.0700 o          1 BVM      -0.601100
     39 N41         -5.3390     3.4760     6.2570 n          1 BVM      -0.492800
     40 C42         -4.7410     4.0360     7.4780 c3         1 BVM       0.116000
     41 C43         -4.8130     2.9830     8.5890 c3         1 BVM      -0.133700
     42 C44         -6.2610     2.5190     8.7540 c3         1 BVM      -0.067400
     43 C45         -6.7450     1.8780     7.4510 c3         1 BVM      -0.100400
     44 C46         -6.6970     2.9180     6.3270 c3         1 BVM       0.095000
     45 C47         -4.3260     3.5840     9.8810 c          1 BVM       0.636100
     46 O48         -3.0750     4.0630     9.9710 os         1 BVM      -0.426900
     47 O49         -5.0620     3.6350    10.8380 o          1 BVM      -0.553000
     48 C50         -2.6750     4.6260    11.2480 c3         1 BVM       0.145400
     49 C51         -1.2270     5.1160    11.1570 c3         1 BVM      -0.096100
     50 H56         -0.2160     0.1110    -1.0560 ha         1 BVM       0.190000
     51 H58         -5.3320    -0.3270     1.0840 h1         1 BVM       0.046700
     52 H60         -3.4010     1.3720     4.5770 hc         1 BVM       0.071700
     53 H59         -2.6010     2.2110     3.2410 hc         1 BVM       0.071700
     54 H62         -2.0430    -0.0800     2.9740 h1         1 BVM       0.044700
     55 H61         -3.7490    -0.5880     3.2490 h1         1 BVM       0.044700
     56 H63         -7.0380     1.8720     0.6190 ha         1 BVM       0.148000
     57 H64         -8.1010     3.5940     2.0150 ha         1 BVM       0.137000
     58 H69         -6.4520    -0.8570    -5.4950 ha         1 BVM       0.152500
     59 H52          4.5780    -0.0000    -0.7100 ha         1 BVM       0.147000
     60 H53          5.0480     0.0000     1.7060 ha         1 BVM       0.150000
     61 H54          0.8660     0.0770     2.5580 ha         1 BVM       0.158000
     62 H55          3.4990     1.5460    -2.6120 h5         1 BVM       0.079100
     63 H57         -0.7940    -0.2380     1.9410 ha         1 BVM       0.125000
     64 H65         -7.0030     4.3480     4.0910 ha         1 BVM       0.133000
     65 H66         -6.4660     0.0430    -0.9330 hn         1 BVM       0.292500
     66 H67         -4.9590     2.8170    -2.5360 ha         1 BVM       0.118000
     67 H68         -4.9390     3.1320    -4.9760 ha         1 BVM       0.152500
     68 H70         -6.4710    -1.1610    -3.0530 ha         1 BVM       0.118000
     69 H72         -5.2920     4.9180     7.7790 h1         1 BVM       0.071700
     70 H73         -3.7060     4.2940     7.2890 h1         1 BVM       0.071700
     71 H74         -4.1920     2.1370     8.3220 hc         1 BVM       0.087700
     72 H76         -6.3160     1.7900     9.5540 hc         1 BVM       0.058700
     73 H75         -6.8880     3.3700     8.9910 hc         1 BVM       0.058700
     74 H78         -6.1010     1.0440     7.1980 hc         1 BVM       0.052700
     75 H77         -7.7630     1.5310     7.5770 hc         1 BVM       0.052700
     76 H80         -7.4040     3.7110     6.5370 h1         1 BVM       0.058200
     77 H79         -6.9430     2.4440     5.3850 h1         1 BVM       0.058200
     78 H81         -3.3230     5.4580    11.4950 h1         1 BVM       0.047200
     79 H82         -2.7510     3.8680    12.0180 h1         1 BVM       0.047200
     80 H84         -0.5790     4.2840    10.9110 hc         1 BVM       0.048033
     81 H85         -1.1500     5.8750    10.3880 hc         1 BVM       0.048033
     82 H83         -0.9280     5.5370    12.1100 hc         1 BVM       0.048033
     83 Cl1          3.3300     0.0010     3.9740 cl         1 BVM      -0.101400
     84 C36         -5.6850     1.3450    -6.8570 c          1 BVM       0.883200
@<TRIPOS>BOND
     1    41    42 1
     2    41    45 1
     3    41    40 1
     4    42    43 1
     5    47    45 2
     6    45    46 1
     7    40    39 1
     8    46    48 1
     9    48    49 1
    10    43    44 1
    11    39    44 1
    12    39    37 1
    13    21    20 2
    14    21    22 1
    15    38    37 2
    16    20    19 1
    17    37    28 1
    18    22    23 2
    19    19    23 1
    20    19    18 1
    21     6     5 1
    22     6     7 1
    23    28     5 ar
    24    28    27 ar
    25    13    18 ar
    26    13    14 ar
    27     5     4 ar
    28     7    26 1
    29    18    17 ar
    30    27     9 ar
    31    14    15 ar
    32    29    11 2
    33    17     1 1
    34    17    16 ar
    35    26     3 1
    36    26     2 1
    37    24     1 2
    38    24     3 1
    39     4     2 1
    40     4     8 ar
    41     9     8 ar
    42    15    16 ar
    43    15    83 1
    44    11     2 1
    45    11    30 1
    46     3    25 2
    47    32    33 ar
    48    32    31 ar
    49    33    12 ar
    50    30    31 1
    51    36    84 1
    52    31    34 ar
    53    12    84 1
    54    12    10 ar
    55    84    35 1
    56    34    10 ar
    57     1    50 1
    58     2    51 1
    59     6    52 1
    60     6    53 1
    61     7    54 1
    62     7    55 1
    63     8    56 1
    64     9    57 1
    65    10    58 1
    66    13    59 1
    67    14    60 1
    68    16    61 1
    69    20    62 1
    70    24    63 1
    71    27    64 1
    72    30    65 1
    73    32    66 1
    74    33    67 1
    75    34    68 1
    76    40    69 1
    77    40    70 1
    78    41    71 1
    79    42    72 1
    80    42    73 1
    81    43    74 1
    82    43    75 1
    83    44    76 1
    84    44    77 1
    85    48    78 1
    86    48    79 1
    87    49    80 1
    88    49    81 1
    89    49    82 1
@<TRIPOS>SUBSTRUCTURE
     1 BVM         1 TEMP              0 ****  ****    0 ROOT
