@<TRIPOS>MOLECULE
molecule
   24    24     1     0     0
SMALL
bcc


@<TRIPOS>ATOM
      1 C10          0.0000     0.0000     0.0000 ce         1 BVS      -0.357200
      2 C13         -2.1580     0.0060     1.1720 c          1 BVS       0.848800
      3 C02          3.5910     0.0160    -3.6790 ca         1 BVS      -0.081300
      4 C03          4.2860     0.0120    -2.4820 ca         1 BVS      -0.151500
      5 C04          3.6030     0.0070    -1.2840 ca         1 BVS      -0.084000
      6 C05          2.2050     0.0060    -1.2800 ca         1 BVS      -0.149600
      7 C06          1.5100     0.0100    -2.4910 ca         1 BVS      -0.084000
      8 C07          2.2070     0.0210    -3.6820 ca         1 BVS      -0.151500
      9 C08          1.4660     0.0000     0.0000 c          1 BVS       0.573900
     10 C11         -0.6780     0.0000     1.1720 cf         1 BVS       0.140900
     11 O09          2.0750    -0.0040     1.0540 o          1 BVS      -0.553100
     12 O12         -0.0010    -0.0050     2.3440 oh         1 BVS      -0.504100
     13 O14         -2.8310     0.0060     2.3380 o          1 BVS      -0.818800
     14 O15         -2.7650     0.0100     0.1200 o          1 BVS      -0.818800
     15 H1          -0.5410     0.0040    -0.9380 ha         1 BVS       0.155000
     16 H2           4.7700     1.0030    -5.1500 hc         1 BVS       0.036367
     17 H3           5.1390    -0.7150    -4.9440 hc         1 BVS       0.036367
     18 H4           3.6670    -0.2220    -5.7930 hc         1 BVS       0.036367
     19 H5           5.3700     0.0120    -2.4860 ha         1 BVS       0.121000
     20 H6           4.1480     0.0030    -0.3480 ha         1 BVS       0.150000
     21 H7           0.4270     0.0130    -2.4960 ha         1 BVS       0.150000
     22 H8           1.6690     0.0250    -4.6230 ha         1 BVS       0.121000
     23 H9          -0.2700    -0.7470     2.8600 ho         1 BVS       0.430000
     24 C01          4.3450     0.0210    -4.9830 c3         1 BVS      -0.045800
@<TRIPOS>BOND
     1    11     9 2
     2     8     7 ar
     3     8     3 ar
     4     7     6 ar
     5    24     3 1
     6     3     4 ar
     7     6     9 1
     8     6     5 ar
     9     9     1 1
    10    12    10 1
    11     4     5 ar
    12    10     1 2
    13    10     2 1
    14    14     2 1
    15     2    13 1
    16     1    15 1
    17    24    16 1
    18    24    17 1
    19    24    18 1
    20     4    19 1
    21     5    20 1
    22     7    21 1
    23     8    22 1
    24    12    23 1
@<TRIPOS>SUBSTRUCTURE
     1 BVS         1 TEMP              0 ****  ****    0 ROOT
