@<TRIPOS>MOLECULE
BVV
   52    55     1     0     0
SMALL
bcc


@<TRIPOS>ATOM
      1 C1           0.0000     0.0000     0.0000 ca         1 BVV      -0.012000
      2 C2           1.3790     0.0000     0.0000 ca         1 BVV      -0.047000
      3 C3           1.3900     0.0020     2.4000 ca         1 BVV      -0.047000
      4 C4           0.0120     0.0080     2.4130 ca         1 BVV      -0.012000
      5 C5          -0.6950     0.0060     1.2100 ca         1 BVV      -0.285900
      6 C6          -2.1740     0.0130     1.2170 ce         1 BVV       0.029800
      7 N1          -2.8430     0.5880     0.2190 nz         1 BVV       0.154400
      8 N2          -2.8380    -0.5580     2.2200 nv         1 BVV       0.392900
      9 N3           6.1930    -0.4880     1.1770 nb         1 BVV      -0.672000
     10 O1           4.0510    -1.3560     1.1850 os         1 BVV      -0.418100
     11 C7           2.0740     0.0000     1.1970 ca         1 BVV       0.055700
     12 C8           3.5810    -0.0060     1.1900 c3         1 BVV       0.244700
     13 C9           5.3950    -1.5400     1.1790 ca         1 BVV       0.673600
     14 C10          5.9080    -2.8360     1.1740 ca         1 BVV      -0.236300
     15 C11          7.2630    -3.0280     1.1670 ca         1 BVV       0.080000
     16 C12          7.5110    -0.6210     1.1700 ca         1 BVV       0.210300
     17 C13          8.0960    -1.9010     1.1650 ca         1 BVV      -0.232300
     18 C14          9.7190    -0.4520     1.1610 cc         1 BVV      -0.134500
     19 C15         11.0820     0.1200     1.1560 cd         1 BVV       0.178000
     20 N5           8.5570     0.2760     1.1670 na         1 BVV       0.319400
     21 C16         12.1940    -0.7240     1.1490 cd         1 BVV      -0.073000
     22 C18         13.4640    -0.1910     1.1450 cc         1 BVV      -0.008500
     23 C20         13.6390     1.1940     1.1470 cc         1 BVV      -0.195000
     24 C19         12.5270     2.0390     1.1540 cc         1 BVV      -0.008500
     25 C17         11.2570     1.5050     1.1520 cd         1 BVV      -0.073000
     26 C21         15.0020     1.7670     1.1480 c2         1 BVV      -0.131000
     27 N6          16.0040     1.1010     1.7190 nv         1 BVV       0.012400
     28 N7          15.2280     2.9490     0.5780 nz         1 BVV       0.238600
     29 N4           9.4390    -1.7320     1.1590 nc         1 BVV      -0.095600
     30 H1          -0.5430    -0.0010    -0.9380 ha         1 BVV       0.113500
     31 H2           1.9200    -0.0030    -0.9390 ha         1 BVV       0.156500
     32 H3           1.9400     0.0020     3.3330 ha         1 BVV       0.156500
     33 H4          -0.5220     0.0110     3.3560 ha         1 BVV       0.113500
     34 H6          -3.7650     0.8230     0.5270 hn         1 BVV       0.260467
     35 H5          -2.3650     1.4200    -0.0670 hn         1 BVV       0.260467
     36 H8          -2.3370    -0.9910     2.9700 hn         1 BVV       0.164700
     37 H10          3.9490     0.5010     2.0730 h1         1 BVV       0.037200
     38 H9           3.9400     0.5040     0.3040 h1         1 BVV       0.037200
     39 H11          5.2370    -3.6870     1.1760 ha         1 BVV       0.148000
     40 H12          7.6820    -4.0270     1.1630 ha         1 BVV       0.142000
     41 H13          8.4840     1.2660     1.2960 hn         1 BVV       0.140700
     42 H14         12.0580    -1.7990     1.1480 ha         1 BVV       0.156000
     43 H16         14.3260    -0.8460     1.1400 ha         1 BVV       0.113000
     44 H17         12.6630     3.1140     1.1530 ha         1 BVV       0.113000
     45 H15         10.3940     2.1600     1.1580 ha         1 BVV       0.156000
     46 H18         15.8340     0.2120     2.1470 hn         1 BVV       0.317300
     47 H21         14.9750     3.6800     1.2130 hn         1 BVV       0.252800
     48 H20         16.1990     3.0290     0.3480 hn         1 BVV       0.252800
     49 H7          -3.8390    -0.5530     2.2240 hn         1 BVV       0.164700
     50 H19         16.9270     1.4880     1.7200 hn         1 BVV       0.317300
     51 H131        -2.8980    -0.0440    -0.5540 hn         1 BVV       0.260467
     52 H73         14.6860     3.0250    -0.2600 hn         1 BVV       0.252800
@<TRIPOS>BOND
     1     1     2 ar  
     2     1     5 ar  
     3     1    30 1   
     4     2    11 ar  
     5     2    31 1   
     6     3     4 ar  
     7     3    11 ar  
     8     3    32 1   
     9     4     5 ar  
    10     4    33 1   
    11     5     6 1   
    12     6     7 1   
    13     6     8 2   
    14     7    34 1   
    15     7    35 1   
    16     7    51 1   
    17     8    36 1   
    18     8    49 1   
    19     9    13 ar  
    20     9    16 ar  
    21    10    12 1   
    22    10    13 1   
    23    11    12 1   
    24    12    37 1   
    25    12    38 1   
    26    13    14 ar  
    27    14    15 ar  
    28    14    39 1   
    29    15    17 ar  
    30    15    40 1   
    31    16    17 ar  
    32    16    20 2   
    33    17    29 2   
    34    18    19 2   
    35    18    20 1   
    36    18    29 1   
    37    19    21 1   
    38    19    25 1   
    39    20    41 1   
    40    21    22 2   
    41    21    42 1   
    42    22    23 1   
    43    22    43 1   
    44    23    24 1   
    45    23    26 2   
    46    24    25 2   
    47    24    44 1   
    48    25    45 1   
    49    26    27 1   
    50    26    28 1   
    51    27    46 1   
    52    27    50 1   
    53    28    47 1   
    54    28    48 1   
    55    28    52 1   
@<TRIPOS>SUBSTRUCTURE
     1 BVV         1 TEMP              0 ****  ****    0 ROOT
