@<TRIPOS>MOLECULE
molecule
   52    55     1     0     0
SMALL
bcc


@<TRIPOS>ATOM
      1 C1           0.0000     0.0000     0.0000 ca         1 BVV      -0.049000
      2 C2           1.3790     0.0000     0.0000 ca         1 BVV      -0.084500
      3 C3           1.3900     0.0020     2.4000 ca         1 BVV      -0.084500
      4 C4           0.0120     0.0080     2.4130 ca         1 BVV      -0.049000
      5 C5          -0.6950     0.0060     1.2100 ca         1 BVV      -0.281900
      6 C6          -2.1740     0.0130     1.2170 ce         1 BVV       0.502800
      7 N1          -2.8430     0.5880     0.2190 nz         1 BVV      -0.788600
      8 N2          -2.8380    -0.5580     2.2200 nv         1 BVV      -0.329100
      9 N3           6.1930    -0.4880     1.1770 nb         1 BVV      -0.809000
     10 O1           4.0510    -1.3560     1.1850 os         1 BVV      -0.425100
     11 C7           2.0740     0.0000     1.1970 ca         1 BVV       0.053700
     12 C8           3.5810    -0.0060     1.1900 c3         1 BVV       0.169700
     13 C9           5.3950    -1.5400     1.1790 ca         1 BVV       0.721600
     14 C10          5.9080    -2.8360     1.1740 ca         1 BVV      -0.258300
     15 C11          7.2630    -3.0280     1.1670 ca         1 BVV       0.038000
     16 C12          7.5110    -0.6210     1.1700 ca         1 BVV       0.442300
     17 C13          8.0960    -1.9010     1.1650 ca         1 BVV      -0.190300
     18 C14          9.7190    -0.4520     1.1610 cc         1 BVV       0.095500
     19 C15         11.0820     0.1200     1.1560 cd         1 BVV       0.159000
     20 N5           8.5570     0.2760     1.1670 na         1 BVV      -0.220600
     21 C16         12.1940    -0.7240     1.1490 cd         1 BVV      -0.098000
     22 C18         13.4640    -0.1910     1.1450 cc         1 BVV      -0.047000
     23 C20         13.6390     1.1940     1.1470 cc         1 BVV      -0.197000
     24 C19         12.5270     2.0390     1.1540 cc         1 BVV      -0.047000
     25 C17         11.2570     1.5050     1.1520 cd         1 BVV      -0.098000
     26 C21         15.0020     1.7670     1.1480 c2         1 BVV       0.345000
     27 N6          16.0040     1.1010     1.7190 nv         1 BVV      -0.686600
     28 N7          15.2280     2.9490     0.5780 nz         1 BVV      -0.711400
     29 N4           9.4390    -1.7320     1.1590 nc         1 BVV      -0.204600
     30 H1          -0.5430    -0.0010    -0.9380 ha         1 BVV       0.154000
     31 H2           1.9200    -0.0030    -0.9390 ha         1 BVV       0.198500
     32 H3           1.9400     0.0020     3.3330 ha         1 BVV       0.198500
     33 H4          -0.5220     0.0110     3.3560 ha         1 BVV       0.154000
     34 H6          -2.9000    -0.0450    -0.5530 hn         1 BVV       0.515133
     35 H5          -3.7650     0.8230     0.5270 hn         1 BVV       0.515133
     36 H8          -3.8390    -0.5530     2.2240 hn         1 BVV       0.370200
     37 H10          3.9490     0.5010     2.0730 h1         1 BVV       0.086200
     38 H9           3.9400     0.5040     0.3040 h1         1 BVV       0.086200
     39 H11          5.2370    -3.6870     1.1760 ha         1 BVV       0.184000
     40 H12          7.6820    -4.0270     1.1630 ha         1 BVV       0.191000
     41 H13          8.4840     1.2660     1.2960 hn         1 BVV       0.321700
     42 H14         12.0580    -1.7990     1.1480 ha         1 BVV       0.198000
     43 H16         14.3260    -0.8460     1.1400 ha         1 BVV       0.153000
     44 H17         12.6630     3.1140     1.1530 ha         1 BVV       0.153000
     45 H15         10.3940     2.1600     1.1580 ha         1 BVV       0.198000
     46 H18         16.9270     1.4880     1.7200 hn         1 BVV       0.520800
     47 H21         14.6800     3.0280    -0.2570 hn         1 BVV       0.509467
     48 H20         14.9750     3.6800     1.2130 hn         1 BVV       0.509467
     49 H7          -2.3370    -0.9910     2.9700 hn         1 BVV       0.370200
     50 H19         15.8340     0.2120     2.1470 hn         1 BVV       0.520800
     51 H131        -2.3630     1.4180    -0.0690 hn         1 BVV       0.515133
     52 H73         16.1990     3.0290     0.3470 hn         1 BVV       0.509467
@<TRIPOS>BOND
     1    27    26 1
     2    28    26 1
     3    26    23 2
     4    23    24 1
     5    23    22 1
     6    24    25 2
     7    22    21 2
     8    25    19 1
     9    21    19 1
    10    19    18 2
    11    18    20 1
    12    18    29 1
    13    20    16 2
    14    29    17 2
    15    16    17 ar
    16    16     9 ar
    17    17    15 ar
    18     9    13 ar
    19    15    14 ar
    20    13    14 ar
    21    13    10 1
    22    12    10 1
    23    12    11 1
    24     3    11 ar
    25     3     4 ar
    26    11     2 ar
    27     4     5 ar
    28     2     1 ar
    29     8     6 2
    30     5     1 ar
    31     5     6 1
    32     6     7 1
    33     1    30 1
    34     2    31 1
    35     3    32 1
    36     4    33 1
    37     7    34 1
    38     7    35 1
    39     8    36 1
    40    12    37 1
    41    12    38 1
    42    14    39 1
    43    15    40 1
    44    20    41 1
    45    21    42 1
    46    22    43 1
    47    24    44 1
    48    25    45 1
    49    27    46 1
    50    28    47 1
    51    28    48 1
    52     8    49 1
    53    27    50 1
    54    51     7 1
    55    52    28 1
@<TRIPOS>SUBSTRUCTURE
     1 BVV         1 TEMP              0 ****  ****    0 ROOT
