@<TRIPOS>MOLECULE
BVY
   51    54     1     0     0
SMALL
bcc


@<TRIPOS>ATOM
      1 C02          0.0000     0.0000     0.0000 c          1 BVY       0.622500
      2 C04          1.8190     0.0000     1.3920 c3         1 BVY       0.008700
      3 C05          2.6750     1.2580     1.6330 c3         1 BVY       0.086700
      4 C07          0.4060     1.2710     3.1040 c3         1 BVY       0.062400
      5 C08         -1.0510     1.7340     3.1770 c3         1 BVY      -0.018400
      6 C09         -1.1630     2.9100     4.1500 c3         1 BVY      -0.033400
      7 C10         -2.6190     3.3730     4.2230 c3         1 BVY      -0.028400
      8 C11         -2.7320     4.5490     5.1960 c3         1 BVY      -0.030400
      9 C12         -4.1880     5.0130     5.2700 c3         1 BVY      -0.022700
     10 C13         -4.2980     6.1700     6.2290 cc         1 BVY       0.273600
     11 C14         -4.8220     7.3900     5.9680 cd         1 BVY      -0.454600
     12 C17         -6.0890     9.5530     8.4870 ca         1 BVY      -0.111300
     13 C18         -5.5900     9.7740     9.7580 ca         1 BVY      -0.070000
     14 C19         -6.4510     9.8350    10.8380 ca         1 BVY      -0.072000
     15 C20         -7.8100     9.6770    10.6490 ca         1 BVY      -0.115000
     16 C21         -8.3110     9.4560     9.3760 ca         1 BVY       0.105900
     17 C23         -7.4480     9.4010     8.2950 ca         1 BVY      -0.116000
     18 C26          0.5330     0.0090     2.2270 c3         1 BVY       0.008700
     19 F22         -9.6390     9.3010     9.1900 f          1 BVY      -0.124900
     20 N03          1.3400     0.0000     0.0000 ns         1 BVY      -0.211900
     21 N15         -4.7110     8.1020     7.1140 na         1 BVY       0.589400
     22 N24         -4.1570     7.3520     8.0010 nd         1 BVY      -0.370800
     23 N25         -3.9030     6.1920     7.5060 nc         1 BVY      -0.315000
     24 N27         -0.5430     0.0040     1.2250 ns         1 BVY      -0.215900
     25 O01         -0.6620    -0.0000    -1.0200 o          1 BVY      -0.726500
     26 S06          1.4350     2.4880     2.2100 ss         1 BVY      -0.393200
     27 H1           2.3950    -0.8950     1.5930 h1         1 BVY       0.038700
     28 H2           3.1400     1.5870     0.7110 h1         1 BVY       0.054700
     29 H3           3.4170     1.0750     2.4010 h1         1 BVY       0.054700
     30 H4           0.8060     1.0880     4.0940 h1         1 BVY       0.061700
     31 H5          -1.3810     2.0470     2.1930 hc         1 BVY       0.031700
     32 H6          -1.6730     0.9180     3.5240 hc         1 BVY       0.031700
     33 H7          -0.5410     3.7260     3.8030 hc         1 BVY       0.026700
     34 H8          -0.8330     2.5970     5.1340 hc         1 BVY       0.026700
     35 H9          -3.2410     2.5570     4.5700 hc         1 BVY       0.014700
     36 H10         -2.9490     3.6860     3.2400 hc         1 BVY       0.014700
     37 H11         -2.4020     4.2360     6.1800 hc         1 BVY       0.026200
     38 H12         -2.1100     5.3650     4.8490 hc         1 BVY       0.026200
     39 H13         -4.8100     4.1960     5.6160 hc         1 BVY       0.018700
     40 H14         -4.5170     5.3250     4.2860 hc         1 BVY       0.018700
     41 H15         -5.4360     7.6510     5.1140 h4         1 BVY       0.161000
     42 H16         -4.2860    10.1130     7.5020 h1         1 BVY       0.042700
     43 H17         -5.6590     9.8340     6.4210 h1         1 BVY       0.042700
     44 H18         -4.5240     9.8980     9.9070 ha         1 BVY       0.118000
     45 H19         -6.0590    10.0070    11.8330 ha         1 BVY       0.112000
     46 H20         -8.4840     9.7220    11.4960 ha         1 BVY       0.121000
     47 H21         -7.8380     9.2280     7.2990 ha         1 BVY       0.119000
     48 H22          0.4780    -0.8830     2.8400 h1         1 BVY       0.039700
     49 H23          1.9210    -0.0030    -0.8150 hn         1 BVY       0.214500
     50 H24         -1.5230     0.0050     1.4250 hn         1 BVY       0.221500
     51 C16         -5.1490     9.4860     7.3110 c3         1 BVY       0.036600
@<TRIPOS>BOND
     1     1    20 1   
     2     1    24 1   
     3     1    25 2   
     4     2     3 1   
     5     2    18 1   
     6     2    20 1   
     7     2    27 1   
     8     3    26 1   
     9     3    28 1   
    10     3    29 1   
    11     4     5 1   
    12     4    18 1   
    13     4    26 1   
    14     4    30 1   
    15     5     6 1   
    16     5    31 1   
    17     5    32 1   
    18     6     7 1   
    19     6    33 1   
    20     6    34 1   
    21     7     8 1   
    22     7    35 1   
    23     7    36 1   
    24     8     9 1   
    25     8    37 1   
    26     8    38 1   
    27     9    10 1   
    28     9    39 1   
    29     9    40 1   
    30    10    11 2   
    31    10    23 1   
    32    11    21 1   
    33    11    41 1   
    34    12    13 ar  
    35    12    17 ar  
    36    12    51 1   
    37    13    14 ar  
    38    13    44 1   
    39    14    15 ar  
    40    14    45 1   
    41    15    16 ar  
    42    15    46 1   
    43    16    17 ar  
    44    16    19 1   
    45    17    47 1   
    46    18    24 1   
    47    18    48 1   
    48    20    49 1   
    49    21    22 1   
    50    21    51 1   
    51    22    23 2   
    52    24    50 1   
    53    42    51 1   
    54    43    51 1   
@<TRIPOS>SUBSTRUCTURE
     1 BVY         1 TEMP              0 ****  ****    0 ROOT
