@<TRIPOS>MOLECULE
molecule
   51    54     1     0     0
SMALL
bcc


@<TRIPOS>ATOM
      1 C02          0.0000     0.0000     0.0000 c          1 BVY       0.819500
      2 C04          1.8190     0.0000     1.3920 c3         1 BVY       0.091700
      3 C05          2.6750     1.2580     1.6330 c3         1 BVY       0.010700
      4 C07          0.4060     1.2710     3.1040 c3         1 BVY       0.023400
      5 C08         -1.0510     1.7340     3.1770 c3         1 BVY      -0.066400
      6 C09         -1.1630     2.9100     4.1500 c3         1 BVY      -0.082400
      7 C10         -2.6190     3.3730     4.2230 c3         1 BVY      -0.083400
      8 C11         -2.7320     4.5490     5.1960 c3         1 BVY      -0.078400
      9 C12         -4.1880     5.0130     5.2700 c3         1 BVY      -0.089700
     10 C13         -4.2980     6.1700     6.2290 cc         1 BVY       0.282600
     11 C14         -4.8220     7.3900     5.9680 cd         1 BVY      -0.294600
     12 C17         -6.0890     9.5530     8.4870 ca         1 BVY      -0.098300
     13 C18         -5.5900     9.7740     9.7580 ca         1 BVY      -0.105000
     14 C19         -6.4510     9.8350    10.8380 ca         1 BVY      -0.103000
     15 C20         -7.8100     9.6770    10.6490 ca         1 BVY      -0.151000
     16 C21         -8.3110     9.4560     9.3760 ca         1 BVY       0.132900
     17 C23         -7.4480     9.4010     8.2950 ca         1 BVY      -0.149000
     18 C26          0.5330     0.0090     2.2270 c3         1 BVY       0.092700
     19 F22         -9.6390     9.3010     9.1900 f          1 BVY      -0.137900
     20 N03          1.3400     0.0000     0.0000 ns         1 BVY      -0.596900
     21 N15         -4.7110     8.1020     7.1140 na         1 BVY       0.125400
     22 N24         -4.1570     7.3520     8.0010 nc         1 BVY      -0.198800
     23 N25         -3.9030     6.1920     7.5060 nd         1 BVY      -0.364000
     24 N27         -0.5430     0.0040     1.2250 ns         1 BVY      -0.594900
     25 O01         -0.6620    -0.0000    -1.0200 o          1 BVY      -0.681500
     26 S06          1.4350     2.4880     2.2100 ss         1 BVY      -0.339200
     27 H1           2.3950    -0.8950     1.5930 h1         1 BVY       0.067700
     28 H2           3.1400     1.5870     0.7110 h1         1 BVY       0.080200
     29 H3           3.4170     1.0750     2.4010 h1         1 BVY       0.080200
     30 H4           0.8060     1.0880     4.0940 h1         1 BVY       0.078700
     31 H5          -1.3810     2.0470     2.1930 hc         1 BVY       0.057200
     32 H6          -1.6730     0.9180     3.5240 hc         1 BVY       0.057200
     33 H7          -0.5410     3.7260     3.8030 hc         1 BVY       0.051200
     34 H8          -0.8330     2.5970     5.1340 hc         1 BVY       0.051200
     35 H9          -3.2410     2.5570     4.5700 hc         1 BVY       0.041200
     36 H10         -2.9490     3.6860     3.2400 hc         1 BVY       0.041200
     37 H11         -2.4020     4.2360     6.1800 hc         1 BVY       0.054700
     38 H12         -2.1100     5.3650     4.8490 hc         1 BVY       0.054700
     39 H13         -4.8100     4.1960     5.6160 hc         1 BVY       0.052200
     40 H14         -4.5170     5.3250     4.2860 hc         1 BVY       0.052200
     41 H15         -5.4360     7.6510     5.1140 h4         1 BVY       0.180000
     42 H16         -4.2860    10.1130     7.5020 h1         1 BVY       0.075200
     43 H17         -5.6590     9.8340     6.4210 h1         1 BVY       0.075200
     44 H18         -4.5240     9.8980     9.9070 ha         1 BVY       0.145000
     45 H19         -6.0590    10.0070    11.8330 ha         1 BVY       0.143000
     46 H20         -8.4840     9.7220    11.4960 ha         1 BVY       0.148000
     47 H21         -7.8380     9.2280     7.2990 ha         1 BVY       0.144000
     48 H22          0.4780    -0.8830     2.8400 h1         1 BVY       0.067700
     49 H23          1.9210    -0.0030    -0.8150 hn         1 BVY       0.362500
     50 H24         -1.5230     0.0050     1.4250 hn         1 BVY       0.363500
     51 C16         -5.1490     9.4860     7.3110 c3         1 BVY       0.111600
@<TRIPOS>BOND
     1    19    16 1
     2    17    16 ar
     3    17    12 ar
     4    16    15 ar
     5    51    12 1
     6    51    21 1
     7    12    13 ar
     8    15    14 ar
     9    21    22 1
    10    21    11 1
    11    22    23 2
    12    11    10 2
    13    13    14 ar
    14    23    10 1
    15     8     7 1
    16     8     9 1
    17    10     9 1
    18     7     6 1
    19     6     5 1
    20     5     4 1
    21     4    18 1
    22     4    26 1
    23    18    24 1
    24    18     2 1
    25    24     1 1
    26    26     3 1
    27     2     3 1
    28     2    20 1
    29     1    20 1
    30     1    25 2
    31     2    27 1
    32     3    28 1
    33     3    29 1
    34     4    30 1
    35     5    31 1
    36     5    32 1
    37     6    33 1
    38     6    34 1
    39     7    35 1
    40     7    36 1
    41     8    37 1
    42     8    38 1
    43     9    39 1
    44     9    40 1
    45    11    41 1
    46    51    42 1
    47    51    43 1
    48    13    44 1
    49    14    45 1
    50    15    46 1
    51    17    47 1
    52    18    48 1
    53    20    49 1
    54    24    50 1
@<TRIPOS>SUBSTRUCTURE
     1 BVY         1 TEMP              0 ****  ****    0 ROOT
