@<TRIPOS>MOLECULE
BW2
   52    54     1     0     0
SMALL
bcc


@<TRIPOS>ATOM
      1 O22         0.0560   -1.7420   -0.0620 o         1 BW2     -0.609000
      2 C22         0.8730   -0.8220   -0.2430 c         1 BW2      0.659100
      3 O23         1.6320   -0.6150    0.8680 oh        1 BW2     -0.603100
      4 C21         1.0140   -0.0200   -1.4920 c3        1 BW2     -0.185400
      5 C20         2.2960    0.7710   -1.6470 c3        1 BW2     -0.072400
      6 C18         2.1440    2.2550   -1.2900 c3        1 BW2     -0.083300
      7 N           1.7990    2.4700    0.1050 n         1 BW2     -0.520900
      8 C17         2.6110    3.2200    0.9350 c         1 BW2      0.640700
      9 O17         3.8350    3.3750    0.7330 o         1 BW2     -0.609100
     10 C11         1.9870    3.7390    2.1980 ca        1 BW2     -0.066600
     11 C12         2.7150    3.6440    3.3900 ca        1 BW2     -0.122500
     12 C13         2.1350    4.0450    4.5890 ca        1 BW2     -0.026000
     13 C14         0.8270    4.5460    4.6250 ca        1 BW2     -0.379500
     14 C15         0.1400    4.7030    3.4140 ca        1 BW2     -0.026000
     15 C16         0.7090    4.3040    2.2060 ca        1 BW2     -0.122500
     16 S10         0.0870    4.9090    6.0900 sy        1 BW2      1.517200
     17 O2         -1.0400    5.7200    5.8530 o         1 BW2     -0.664300
     18 O1          1.0310    5.4380    7.0020 o         1 BW2     -0.664300
     19 N9         -0.3520    3.4460    6.6560 nh        1 BW2     -0.788500
     20 C6         -0.9440    2.4340    5.8740 ca        1 BW2      0.062600
     21 C5         -0.1730    1.3800    5.3700 ca        1 BW2     -0.047000
     22 C4A        -0.7390    0.4520    4.4920 ca        1 BW2     -0.226600
     23 C8A        -2.1060    0.5270    4.1140 ca        1 BW2      0.239400
     24 N1         -2.6650   -0.3220    3.1730 nc        1 BW2     -0.710100
     25 C2         -1.8460   -1.1980    2.5470 cd        1 BW2      0.699800
     26 N2         -2.3930   -2.0850    1.6020 nh        1 BW2     -0.888800
     27 N3         -0.4740   -1.3370    2.8480 n         1 BW2     -0.491400
     28 C4          0.1130   -0.5750    3.8700 c         1 BW2      0.721100
     29 O4          1.2980   -0.7970    4.1820 o         1 BW2     -0.627500
     30 C8         -2.8970    1.5500    4.7090 ca        1 BW2     -0.145000
     31 C7         -2.3280    2.4770    5.5570 ca        1 BW2     -0.085000
     32 C19         1.0510    2.8580   -2.2570 c         1 BW2      0.905600
     33 O19        -0.1270    2.9560   -1.8090 o         1 BW2     -0.817800
     34 O20         1.4360    3.1650   -3.4110 o         1 BW2     -0.817800
     35 H211        0.1310    0.6900   -1.5400 hc        1 BW2      0.109200
     36 H212        0.9030   -0.7340   -2.3530 hc        1 BW2      0.109200
     37 H201        2.5890    0.7550   -2.7320 hc        1 BW2      0.050700
     38 H202        3.1330    0.3010   -1.0680 hc        1 BW2      0.050700
     39 H18         3.1250    2.7650   -1.5140 h1        1 BW2      0.084700
     40 HN          2.2290    0.1390    0.7480 ho        1 BW2      0.462000
     41 H12         3.7420    3.2460    3.3640 ha        1 BW2      0.164500
     42 H13         2.7100    3.9690    5.5280 ha        1 BW2      0.151500
     43 H15        -0.8740    5.1420    3.4220 ha        1 BW2      0.151500
     44 H16         0.1440    4.4360    1.2670 ha        1 BW2      0.164500
     45 HN9        -0.1080    3.1540    7.5740 hn        1 BW2      0.451800
     46 H5          0.8970    1.2760    5.6220 ha        1 BW2      0.156000
     47 HN21       -3.2900   -1.8190    1.2560 hn        1 BW2      0.432300
     48 HN22       -1.7630   -2.4130    0.8980 hn        1 BW2      0.432300
     49 HN3         0.1270   -1.8660    2.2420 hn        1 BW2      0.366500
     50 H8         -3.9690    1.6130    4.4650 ha        1 BW2      0.151000
     51 H7         -2.9540    3.2830    5.9770 ha        1 BW2      0.147000
     52 HN31        0.8080    2.5910    0.2270 hn        1 BW2      0.318500
@<TRIPOS>BOND
     1    1    2 2   
     2    2    3 1   
     3    2    4 1   
     4    3   40 1   
     5    4    5 1   
     6    4   35 1   
     7    4   36 1   
     8    5    6 1   
     9    5   37 1   
    10    5   38 1   
    11    6    7 1   
    12    6   32 1   
    13    6   39 1   
    14    7    8 1   
    15    7   52 1   
    16    8    9 2   
    17    8   10 1   
    18   10   11 ar  
    19   10   15 ar  
    20   11   12 ar  
    21   11   41 1   
    22   12   13 ar  
    23   12   42 1   
    24   13   14 ar  
    25   13   16 1   
    26   14   15 ar  
    27   14   43 1   
    28   15   44 1   
    29   16   17 2   
    30   16   18 2   
    31   16   19 1   
    32   19   20 1   
    33   19   45 1   
    34   20   21 ar  
    35   20   31 ar  
    36   21   22 ar  
    37   21   46 1   
    38   22   23 ar  
    39   22   28 1   
    40   23   24 1   
    41   23   30 ar  
    42   24   25 2   
    43   25   26 1   
    44   25   27 1   
    45   26   47 1   
    46   26   48 1   
    47   27   28 1   
    48   27   49 1   
    49   28   29 2   
    50   30   31 ar  
    51   30   50 1   
    52   31   51 1   
    53   32   33 1   
    54   32   34 1   
@<TRIPOS>SUBSTRUCTURE
     1 BW2         1 TEMP              0 ****  ****    0 ROOT
