@<TRIPOS>MOLECULE
molecule
   60    63     1     0     0
SMALL
bcc


@<TRIPOS>ATOM
      1 CAZ          0.0000     0.0000     0.0000 c3         1 BW7       0.129800
      2 CBA          1.5300     0.0000     0.0000 c3         1 BW7       0.138400
      3 OBB          2.0020     0.0000     1.3510 os         1 BW7      -0.421600
      4 CBC          1.5500    -1.1190     2.1190 c3         1 BW7       0.138400
      5 CBD          0.0190    -1.1290     2.1400 c3         1 BW7       0.129800
      6 NAY         -0.4850    -1.1620     0.7590 nh         1 BW7      -0.621000
      7 CAH         -1.8720    -1.2280     0.7370 ca         1 BW7       0.203600
      8 CAI         -2.6430    -0.2300     1.3140 ca         1 BW7      -0.327300
      9 CAG         -2.5370    -2.3090     0.1230 ca         1 BW7      -0.344200
     10 CAF         -2.0980    -3.4720    -0.5470 cc         1 BW7       0.400800
     11 NAE         -3.1420    -4.1500    -0.9290 nd         1 BW7      -0.489100
     12 NAD         -4.3080    -3.4810    -0.5380 na         1 BW7      -0.031800
     13 CAB         -5.6800    -3.9300    -0.7860 c3         1 BW7       0.088000
     14 CAC         -5.9120    -4.0510    -2.2930 c3         1 BW7      -0.107100
     15 CAA         -5.8980    -5.2940    -0.1250 c3         1 BW7      -0.107100
     16 CAL         -3.9450    -2.3350     0.1170 ca         1 BW7       0.487800
     17 NAK         -4.6350    -1.3520     0.6840 nb         1 BW7      -0.729000
     18 CAJ         -4.0340    -0.3280     1.2730 cp         1 BW7       0.527800
     19 CAM         -4.8570     0.7390     1.8900 cp         1 BW7      -0.097500
     20 CAX         -6.2430     0.6080     1.9460 ca         1 BW7      -0.107000
     21 CAN         -4.2460     1.8740     2.4210 ca         1 BW7      -0.133000
     22 CAO         -5.0150     2.8670     2.9950 ca         1 BW7      -0.089000
     23 CAP         -6.3890     2.7390     3.0450 ca         1 BW7      -0.214000
     24 CAQ         -7.0060     1.6090     2.5240 ca         1 BW7       0.111100
     25 OAR         -8.3590     1.4860     2.5800 os         1 BW7      -0.324900
     26 CAS         -9.0830     2.5570     3.1900 c3         1 BW7       0.145400
     27 CAT        -10.5790     2.2410     3.1610 c3         1 BW7       0.120100
     28 OAU        -11.0320     2.2020     1.8060 oh         1 BW7      -0.584800
     29 CAV        -11.3440     3.3250     3.9230 c3         1 BW7       0.077800
     30 NAW        -12.7650     2.9610     3.9990 nz         1 BW7      -0.807600
     31 H1          -0.3610    -0.0590    -1.0200 h1         1 BW7       0.049200
     32 H2          -0.3600     0.9100     0.4650 h1         1 BW7       0.049200
     33 H3           1.8910     0.8860    -0.5080 h1         1 BW7       0.059450
     34 H4           1.8900    -0.8860    -0.5080 h1         1 BW7       0.059450
     35 H5           1.9100    -2.0350     1.6670 h1         1 BW7       0.059450
     36 H6           1.9240    -1.0360     3.1320 h1         1 BW7       0.059450
     37 H7          -0.3280    -2.0070     2.6720 h1         1 BW7       0.049200
     38 H8          -0.3410    -0.2340     2.6340 h1         1 BW7       0.049200
     39 H9          -2.1690     0.6150     1.7990 ha         1 BW7       0.147000
     40 H10         -1.0650    -3.7530    -0.7140 h4         1 BW7       0.074800
     41 H11         -6.3750    -3.2120    -0.3700 h1         1 BW7       0.075700
     42 H12         -5.6800    -3.1070    -2.7710 hc         1 BW7       0.049700
     43 H13         -6.9490    -4.3050    -2.4790 hc         1 BW7       0.049700
     44 H14         -5.2730    -4.8270    -2.6960 hc         1 BW7       0.049700
     45 H15         -5.6530    -5.2280     0.9280 hc         1 BW7       0.049700
     46 H16         -6.9350    -5.5870    -0.2370 hc         1 BW7       0.049700
     47 H17         -5.2610    -6.0310    -0.5990 hc         1 BW7       0.049700
     48 H18         -6.7220    -0.2740     1.5380 ha         1 BW7       0.170000
     49 H19         -3.1680     1.9770     2.3840 ha         1 BW7       0.147000
     50 H20         -4.5390     3.7490     3.4050 ha         1 BW7       0.141000
     51 H21         -6.9880     3.5210     3.4970 ha         1 BW7       0.120000
     52 H22         -8.8970     3.4750     2.6460 h1         1 BW7       0.057200
     53 H23         -8.7580     2.6730     4.2170 h1         1 BW7       0.057200
     54 H24        -10.7550     1.2790     3.6280 h1         1 BW7       0.063700
     55 H25        -11.4310     1.3660     1.6320 ho         1 BW7       0.427000
     56 H26        -11.2410     4.2710     3.4060 hx         1 BW7       0.122700
     57 H27        -10.9410     3.4160     4.9240 hx         1 BW7       0.122700
     58 H28        -13.2090     3.4990     4.7160 hn         1 BW7       0.460133
     59 H29        -13.2050     3.1500     3.1200 hn         1 BW7       0.460133
     60 HAW3       -12.8490     1.9870     4.2120 hn         1 BW7       0.460133
@<TRIPOS>BOND
     1    30    29 1
     2    29    27 1
     3    15    13 1
     4    28    27 1
     5    27    26 1
     6    26    25 1
     7    13    14 1
     8    13    12 1
     9    11    12 1
    10    11    10 2
    11    12    16 1
    12    25    24 1
    13    10     9 1
    14    16    17 ar
    15    16     9 ar
    16    17    18 ar
    17    20    24 ar
    18    20    19 ar
    19     9     7 ar
    20    24    23 ar
    21    18    19 1
    22    18     8 ar
    23     7     8 ar
    24     7     6 1
    25     5     6 1
    26     5     4 1
    27    19    21 ar
    28     6     1 1
    29    23    22 ar
    30     4     3 1
    31     3     2 1
    32     1     2 1
    33    21    22 ar
    34     1    31 1
    35     1    32 1
    36     2    33 1
    37     2    34 1
    38     4    35 1
    39     4    36 1
    40     5    37 1
    41     5    38 1
    42     8    39 1
    43    10    40 1
    44    13    41 1
    45    14    42 1
    46    14    43 1
    47    14    44 1
    48    15    45 1
    49    15    46 1
    50    15    47 1
    51    20    48 1
    52    21    49 1
    53    22    50 1
    54    23    51 1
    55    26    52 1
    56    26    53 1
    57    27    54 1
    58    28    55 1
    59    29    56 1
    60    29    57 1
    61    30    58 1
    62    30    59 1
    63    60    30 1
@<TRIPOS>SUBSTRUCTURE
     1 BW7         1 TEMP              0 ****  ****    0 ROOT
