@<TRIPOS>MOLECULE
BW7
   60    63     1     0     0
SMALL
bcc


@<TRIPOS>ATOM
      1 CAZ          0.0000     0.0000     0.0000 c3         1 BW7       0.107300
      2 CBA          1.5300     0.0000     0.0000 c3         1 BW7       0.214400
      3 OBB          2.0020     0.0000     1.3510 os         1 BW7      -0.408600
      4 CBC          1.5500    -1.1190     2.1190 c3         1 BW7       0.214400
      5 CBD          0.0190    -1.1290     2.1400 c3         1 BW7       0.107300
      6 NAY         -0.4850    -1.1620     0.7590 nh         1 BW7      -0.403000
      7 CAH         -1.8720    -1.2280     0.7370 ca         1 BW7       0.141600
      8 CAI         -2.6430    -0.2300     1.3140 ca         1 BW7      -0.304300
      9 CAG         -2.5370    -2.3090     0.1230 ca         1 BW7      -0.359200
     10 CAF         -2.0980    -3.4720    -0.5470 cc         1 BW7       0.459800
     11 NAE         -3.1420    -4.1500    -0.9290 nd         1 BW7      -0.613100
     12 NAD         -4.3080    -3.4810    -0.5380 na         1 BW7       0.371200
     13 CAB         -5.6800    -3.9300    -0.7860 c3         1 BW7      -0.028000
     14 CAC         -5.9120    -4.0510    -2.2930 c3         1 BW7      -0.011600
     15 CAA         -5.8980    -5.2940    -0.1250 c3         1 BW7      -0.011600
     16 CAL         -3.9450    -2.3350     0.1170 ca         1 BW7       0.287800
     17 NAK         -4.6350    -1.3520     0.6840 nb         1 BW7      -0.587000
     18 CAJ         -4.0340    -0.3280     1.2730 cp         1 BW7       0.471800
     19 CAM         -4.8570     0.7390     1.8900 cp         1 BW7      -0.098500
     20 CAX         -6.2430     0.6080     1.9460 ca         1 BW7      -0.098000
     21 CAN         -4.2460     1.8740     2.4210 ca         1 BW7      -0.117000
     22 CAO         -5.0150     2.8670     2.9950 ca         1 BW7      -0.052000
     23 CAP         -6.3890     2.7390     3.0450 ca         1 BW7      -0.206000
     24 CAQ         -7.0060     1.6090     2.5240 ca         1 BW7       0.121100
     25 OAR         -8.3590     1.4860     2.5800 os         1 BW7      -0.301900
     26 CAS         -9.0830     2.5570     3.1900 c3         1 BW7       0.201400
     27 CAT        -10.5790     2.2410     3.1610 c3         1 BW7       0.172100
     28 OAU        -11.0320     2.2020     1.8060 oh         1 BW7      -0.566800
     29 CAV        -11.3440     3.3250     3.9230 c3         1 BW7      -0.074200
     30 NAW        -12.7650     2.9610     3.9990 nz         1 BW7       0.092400
     31 H1          -0.3610    -0.0590    -1.0200 h1         1 BW7       0.021200
     32 H2          -0.3600     0.9100     0.4650 h1         1 BW7       0.021200
     33 H3           1.8910     0.8860    -0.5080 h1         1 BW7       0.017200
     34 H4           1.8900    -0.8860    -0.5080 h1         1 BW7       0.017200
     35 H5           1.9100    -2.0350     1.6670 h1         1 BW7       0.017200
     36 H6           1.9240    -1.0360     3.1320 h1         1 BW7       0.017200
     37 H7          -0.3280    -2.0070     2.6720 h1         1 BW7       0.021200
     38 H8          -0.3410    -0.2340     2.6340 h1         1 BW7       0.021200
     39 H9          -2.1690     0.6150     1.7990 ha         1 BW7       0.135000
     40 H10         -1.0650    -3.7530    -0.7140 h4         1 BW7       0.025800
     41 H11         -6.3750    -3.2120    -0.3700 h1         1 BW7       0.045700
     42 H12         -5.6800    -3.1070    -2.7710 hc         1 BW7       0.016867
     43 H13         -6.9490    -4.3050    -2.4790 hc         1 BW7       0.016867
     44 H14         -5.2730    -4.8270    -2.6960 hc         1 BW7       0.016867
     45 H15         -5.6530    -5.2280     0.9280 hc         1 BW7       0.016867
     46 H16         -6.9350    -5.5870    -0.2370 hc         1 BW7       0.016867
     47 H17         -5.2610    -6.0310    -0.5990 hc         1 BW7       0.016867
     48 H18         -6.7220    -0.2740     1.5380 ha         1 BW7       0.137000
     49 H19         -3.1680     1.9770     2.3840 ha         1 BW7       0.121000
     50 H20         -4.5390     3.7490     3.4050 ha         1 BW7       0.108000
     51 H21         -6.9880     3.5210     3.4970 ha         1 BW7       0.105000
     52 H22         -8.8970     3.4750     2.6460 h1         1 BW7       0.021700
     53 H23         -8.7580     2.6730     4.2170 h1         1 BW7       0.021700
     54 H24        -10.7550     1.2790     3.6280 h1         1 BW7       0.024700
     55 H25        -11.4310     1.3660     1.6320 ho         1 BW7       0.413000
     56 H26        -11.2410     4.2710     3.4060 hx         1 BW7       0.094700
     57 H27        -10.9410     3.4160     4.9240 hx         1 BW7       0.094700
     58 H28        -13.2090     3.4990     4.7160 hn         1 BW7       0.224467
     59 H29        -13.2050     3.1500     3.1200 hn         1 BW7       0.224467
     60 HAW3       -12.8490     1.9870     4.2120 hn         1 BW7       0.224467
@<TRIPOS>BOND
     1     1     2 1   
     2     1     6 1   
     3     1    31 1   
     4     1    32 1   
     5     2     3 1   
     6     2    33 1   
     7     2    34 1   
     8     3     4 1   
     9     4     5 1   
    10     4    35 1   
    11     4    36 1   
    12     5     6 1   
    13     5    37 1   
    14     5    38 1   
    15     6     7 1   
    16     7     8 ar  
    17     7     9 ar  
    18     8    18 ar  
    19     8    39 1   
    20     9    10 1   
    21     9    16 ar  
    22    10    11 2   
    23    10    40 1   
    24    11    12 1   
    25    12    13 1   
    26    12    16 1   
    27    13    14 1   
    28    13    15 1   
    29    13    41 1   
    30    14    42 1   
    31    14    43 1   
    32    14    44 1   
    33    15    45 1   
    34    15    46 1   
    35    15    47 1   
    36    16    17 ar  
    37    17    18 ar  
    38    18    19 1   
    39    19    20 ar  
    40    19    21 ar  
    41    20    24 ar  
    42    20    48 1   
    43    21    22 ar  
    44    21    49 1   
    45    22    23 ar  
    46    22    50 1   
    47    23    24 ar  
    48    23    51 1   
    49    24    25 1   
    50    25    26 1   
    51    26    27 1   
    52    26    52 1   
    53    26    53 1   
    54    27    28 1   
    55    27    29 1   
    56    27    54 1   
    57    28    55 1   
    58    29    30 1   
    59    29    56 1   
    60    29    57 1   
    61    30    58 1   
    62    30    59 1   
    63    30    60 1   
@<TRIPOS>SUBSTRUCTURE
     1 BW7         1 TEMP              0 ****  ****    0 ROOT
