@<TRIPOS>MOLECULE
BW8
   51    53     1     0     0
SMALL
bcc


@<TRIPOS>ATOM
      1 C14          0.0000     0.0000     0.0000 ca         1 BW8      -0.080400
      2 C16         -0.0020    -0.0060     2.4000 ca         1 BW8      -0.139000
      3 C19         -0.1210    -0.4790    -2.3310 c          1 BW8       0.549100
      4 C24          0.8890    -2.1520    -6.9180 ca         1 BW8       0.021900
      5 C23          0.2080    -0.9470    -7.0240 ca         1 BW8      -0.104000
      6 C25          1.0210    -2.7670    -5.6770 ca         1 BW8       0.136900
      7 C26          0.4780    -2.1760    -4.5520 ca         1 BW8      -0.127000
      8 C01          0.0590    -6.9910     4.4630 c3         1 BW8       0.083300
      9 C04          1.4850    -3.4670     4.6020 ca         1 BW8       0.358800
     10 C05          1.4050    -2.2980     3.8550 ca         1 BW8      -0.249300
     11 C06          2.1170    -1.1770     4.2760 ca         1 BW8       0.165100
     12 C07          2.8830    -1.2770     5.4340 ca         1 BW8      -0.250300
     13 C08          2.9110    -2.4760     6.1250 ca         1 BW8       0.428200
     14 C11          1.3860    -0.0120     2.3980 ca         1 BW8       0.081100
     15 C12          2.0780     0.0000     1.1960 ca         1 BW8      -0.091000
     16 C13          1.3870     0.0000     0.0000 ca         1 BW8      -0.086000
     17 C15         -0.6940     0.0000     1.2040 ca         1 BW8       0.070900
     18 C21         -0.1970    -0.9680    -4.6600 ca         1 BW8      -0.106400
     19 C22         -0.3340    -0.3570    -5.8990 ca         1 BW8      -0.127000
     20 C29          1.1390    -1.7430    -9.6750 c3         1 BW8      -0.010300
     21 C30          1.6690    -2.2530   -10.9900 c          1 BW8       0.994600
     22 F17         -2.0460     0.0060     1.2050 f          1 BW8      -0.128900
     23 N02          0.8020    -5.8040     4.8920 ns         1 BW8      -0.176900
     24 N09          2.2240    -3.5160     5.7050 nb         1 BW8      -0.615000
     25 N18         -0.7010     0.0050    -1.2150 ns         1 BW8      -0.048100
     26 N20         -0.7480    -0.3680    -3.5180 ns         1 BW8      -0.032100
     27 O10          2.0670    -0.0160     3.5740 os         1 BW8      -0.210200
     28 O31          2.2810    -3.2940   -11.0310 o          1 BW8      -0.868800
     29 O32          1.4600    -1.5520   -12.1150 o          1 BW8      -0.868800
     30 O33          0.9690    -1.0130    -2.2660 o          1 BW8      -0.678100
     31 O34          0.0560    -4.6300     3.1610 o          1 BW8      -0.644100
     32 H1          -0.5420    -0.0100     3.3390 ha         1 BW8       0.129000
     33 H2           0.1030    -0.4680    -7.9900 ha         1 BW8       0.134000
     34 H3           0.5820    -2.6530    -3.5850 ha         1 BW8       0.146000
     35 H4           0.2350    -7.8000     5.1620 h1         1 BW8       0.009033
     36 H5           0.3930    -7.2890     3.4760 h1         1 BW8       0.009033
     37 H6          -1.0000    -6.7640     4.4330 h1         1 BW8       0.009033
     38 H7           0.7980    -2.2590     2.9590 ha         1 BW8       0.163000
     39 H8           3.4510    -0.4270     5.7910 ha         1 BW8       0.124000
     40 H9           3.5040    -2.5570     7.0280 h4         1 BW8      -0.021900
     41 H10          3.1620    -0.0020     1.1960 ha         1 BW8       0.120000
     42 H11          1.9290     0.0040    -0.9380 ha         1 BW8       0.174000
     43 H12         -0.8630     0.5840    -5.9830 ha         1 BW8       0.098000
     44 H13          1.5730    -0.7730    -9.4630 h1         1 BW8       0.031200
     45 H14          0.0610    -1.6520    -9.7310 h1         1 BW8       0.031200
     46 H15          1.3590    -5.8350     5.7230 hn         1 BW8       0.187500
     47 H16         -1.6250     0.3880    -1.2570 hn         1 BW8       0.168500
     48 H17         -1.6200     0.1190    -3.5800 hn         1 BW8       0.156500
     49 F27          1.6780    -3.9430    -5.5720 f          1 BW8      -0.120900
     50 C03          0.7330    -4.6680     4.1690 c          1 BW8       0.478600
     51 S28          1.5800    -2.9040    -8.3530 ss         1 BW8      -0.272000
@<TRIPOS>BOND
     1     1    16 ar  
     2     1    17 ar  
     3     1    25 1   
     4     2    14 ar  
     5     2    17 ar  
     6     2    32 1   
     7     3    25 1   
     8     3    26 1   
     9     3    30 2   
    10     4     5 ar  
    11     4     6 ar  
    12     4    51 1   
    13     5    19 ar  
    14     5    33 1   
    15     6     7 ar  
    16     6    49 1   
    17     7    18 ar  
    18     7    34 1   
    19     8    23 1   
    20     8    35 1   
    21     8    36 1   
    22     8    37 1   
    23     9    10 ar  
    24     9    24 ar  
    25     9    50 1   
    26    10    11 ar  
    27    10    38 1   
    28    11    12 ar  
    29    11    27 1   
    30    12    13 ar  
    31    12    39 1   
    32    13    24 ar  
    33    13    40 1   
    34    14    15 ar  
    35    14    27 1   
    36    15    16 ar  
    37    15    41 1   
    38    16    42 1   
    39    17    22 1   
    40    18    19 ar  
    41    18    26 1   
    42    19    43 1   
    43    20    21 1   
    44    20    44 1   
    45    20    45 1   
    46    20    51 1   
    47    21    28 1   
    48    21    29 1   
    49    23    46 1   
    50    23    50 1   
    51    25    47 1   
    52    26    48 1   
    53    31    50 2   
@<TRIPOS>SUBSTRUCTURE
     1 BW8         1 TEMP              0 ****  ****    0 ROOT
