@<TRIPOS>MOLECULE
molecule
   51    53     1     0     0
SMALL
bcc


@<TRIPOS>ATOM
      1 C14          0.0000     0.0000     0.0000 ca         1 BW8       0.060600
      2 C16         -0.0020    -0.0060     2.4000 ca         1 BW8      -0.166000
      3 C19         -0.1210    -0.4790    -2.3310 c          1 BW8       0.781100
      4 C24          0.8890    -2.1520    -6.9180 ca         1 BW8      -0.015100
      5 C23          0.2080    -0.9470    -7.0240 ca         1 BW8      -0.125000
      6 C25          1.0210    -2.7670    -5.6770 ca         1 BW8       0.138900
      7 C26          0.4780    -2.1760    -4.5520 ca         1 BW8      -0.153000
      8 C01          0.0590    -6.9910     4.4630 c3         1 BW8       0.102300
      9 C04          1.4850    -3.4670     4.6020 ca         1 BW8       0.404800
     10 C05          1.4050    -2.2980     3.8550 ca         1 BW8      -0.267300
     11 C06          2.1170    -1.1770     4.2760 ca         1 BW8       0.160100
     12 C07          2.8830    -1.2770     5.4340 ca         1 BW8      -0.269300
     13 C08          2.9110    -2.4760     6.1250 ca         1 BW8       0.440200
     14 C11          1.3860    -0.0120     2.3980 ca         1 BW8       0.077100
     15 C12          2.0780     0.0000     1.1960 ca         1 BW8      -0.118000
     16 C13          1.3870     0.0000     0.0000 ca         1 BW8      -0.107000
     17 C15         -0.6940     0.0000     1.2040 ca         1 BW8       0.096900
     18 C21         -0.1970    -0.9680    -4.6600 ca         1 BW8       0.036600
     19 C22         -0.3340    -0.3570    -5.8990 ca         1 BW8      -0.155000
     20 C29          1.1390    -1.7430    -9.6750 c3         1 BW8      -0.113300
     21 C30          1.6690    -2.2530   -10.9900 c          1 BW8       0.905600
     22 F17         -2.0460     0.0060     1.2050 f          1 BW8      -0.141900
     23 N02          0.8020    -5.8040     4.8920 ns         1 BW8      -0.571900
     24 N09          2.2240    -3.5160     5.7050 nb         1 BW8      -0.719000
     25 N18         -0.7010     0.0050    -1.2150 ns         1 BW8      -0.487100
     26 N20         -0.7480    -0.3680    -3.5180 ns         1 BW8      -0.477100
     27 O10          2.0670    -0.0160     3.5740 os         1 BW8      -0.236200
     28 O31          2.2810    -3.2940   -11.0310 o          1 BW8      -0.824300
     29 O32          1.4600    -1.5520   -12.1150 o          1 BW8      -0.824300
     30 O33          0.9690    -1.0130    -2.2660 o          1 BW8      -0.630100
     31 O34          0.0560    -4.6300     3.1610 o          1 BW8      -0.598100
     32 H1          -0.5420    -0.0100     3.3390 ha         1 BW8       0.156000
     33 H2           0.1030    -0.4680    -7.9900 ha         1 BW8       0.155000
     34 H3           0.5820    -2.6530    -3.5850 ha         1 BW8       0.163000
     35 H4           0.2350    -7.8000     5.1620 h1         1 BW8       0.041700
     36 H5           0.3930    -7.2890     3.4760 h1         1 BW8       0.041700
     37 H6          -1.0000    -6.7640     4.4330 h1         1 BW8       0.041700
     38 H7           0.7980    -2.2590     2.9590 ha         1 BW8       0.183000
     39 H8           3.4510    -0.4270     5.7910 ha         1 BW8       0.151000
     40 H9           3.5040    -2.5570     7.0280 h4         1 BW8       0.026100
     41 H10          3.1620    -0.0020     1.1960 ha         1 BW8       0.153000
     42 H11          1.9290     0.0040    -0.9380 ha         1 BW8       0.198000
     43 H12         -0.8630     0.5840    -5.9830 ha         1 BW8       0.121000
     44 H13          1.5730    -0.7730    -9.4630 h1         1 BW8       0.053200
     45 H14          0.0610    -1.6520    -9.7310 h1         1 BW8       0.053200
     46 H15          1.3590    -5.8350     5.7230 hn         1 BW8       0.331500
     47 H16         -1.6250     0.3880    -1.2570 hn         1 BW8       0.326500
     48 H17         -1.6200     0.1190    -3.5800 hn         1 BW8       0.315500
     49 F27          1.6780    -3.9430    -5.5720 f          1 BW8      -0.131900
     50 C03          0.7330    -4.6680     4.1690 c          1 BW8       0.571600
     51 S28          1.5800    -2.9040    -8.3530 ss         1 BW8      -0.156000
@<TRIPOS>BOND
     1    31    50 2
     2     8    23 1
     3    50    23 1
     4    50     9 1
     5    10     9 ar
     6    10    11 ar
     7     9    24 ar
     8    27    11 1
     9    27    14 1
    10    15    14 ar
    11    15    16 ar
    12    11    12 ar
    13    14     2 ar
    14    16     1 ar
    15    24    13 ar
    16     2    17 ar
    17    28    21 1
    18     1    17 ar
    19     1    25 1
    20    12    13 ar
    21    17    22 1
    22    25     3 1
    23    30     3 2
    24    29    21 1
    25    21    20 1
    26     3    26 1
    27    26    18 1
    28    18     7 ar
    29    18    19 ar
    30     7     6 ar
    31    20    51 1
    32    19     5 ar
    33     6    49 1
    34     6     4 ar
    35     5     4 ar
    36     4    51 1
    37     2    32 1
    38     5    33 1
    39     7    34 1
    40     8    35 1
    41     8    36 1
    42     8    37 1
    43    10    38 1
    44    12    39 1
    45    13    40 1
    46    15    41 1
    47    16    42 1
    48    19    43 1
    49    20    44 1
    50    20    45 1
    51    23    46 1
    52    25    47 1
    53    26    48 1
@<TRIPOS>SUBSTRUCTURE
     1 BW8         1 TEMP              0 ****  ****    0 ROOT
