@<TRIPOS>MOLECULE
molecule
   47    50     1     0     0
SMALL
bcc


@<TRIPOS>ATOM
      1 C1           0.0000     0.0000     0.0000 ca         1 BWA       0.084600
      2 C3          -1.8850     0.6290    -1.3080 c          1 BWA       0.780100
      3 C11          2.0780     0.0000     1.1970 ca         1 BWA      -0.088000
      4 C12          1.3890     0.0000     0.0000 ca         1 BWA      -0.152000
      5 C13         -5.3370    -0.1280    -4.0920 ca         1 BWA       0.436200
      6 C15         -5.6250     0.4050    -6.3150 ca         1 BWA       0.427200
      7 C16         -4.8010     1.5090    -6.1970 ca         1 BWA      -0.258300
      8 C17         -4.2320     1.7990    -4.9670 ca         1 BWA      -0.077000
      9 C20          3.4780     2.0990     3.7900 c          1 BWA       0.725100
     10 C21          3.3650     3.4410     4.3980 ca         1 BWA      -0.152100
     11 C22          2.1420     3.4440     5.0990 ca         1 BWA      -0.152100
     12 C23          1.5540     2.1040     4.8940 c          1 BWA       0.725100
     13 C24          4.1630     4.5730     4.3980 ca         1 BWA      -0.060500
     14 C25          3.7530     5.7030     5.0910 ca         1 BWA      -0.115000
     15 C26          2.5540     5.7060     5.7780 ca         1 BWA      -0.115000
     16 C27          1.7450     4.5810     5.7860 ca         1 BWA      -0.060500
     17 N2          -0.7010    -0.0070    -1.2110 ns         1 BWA      -0.492100
     18 N4          -2.6120     0.5330    -2.4390 ns         1 BWA      -0.601900
     19 O5          -2.3000     1.2890    -0.3740 o          1 BWA      -0.642100
     20 C6          -3.8990     1.2250    -2.5450 c3         1 BWA       0.182300
     21 C7          -4.5040     0.9580    -3.8990 ca         1 BWA      -0.247600
     22 C8          -0.6920     0.0020     1.2040 ca         1 BWA      -0.152000
     23 C9           0.0030     0.0030     2.3970 ca         1 BWA      -0.088000
     24 C10          1.3860     0.0030     2.3940 ca         1 BWA      -0.148300
     25 N14         -5.8650    -0.3700    -5.2750 nb         1 BWA      -0.690000
     26 N19          2.3860     1.3850     4.1190 n          1 BWA      -0.487400
     27 O29          0.4940     1.7190     5.3420 o          1 BWA      -0.580500
     28 H1           3.1610    -0.0000     1.1970 ha         1 BWA       0.146500
     29 H2           1.9310    -0.0020    -0.9380 ha         1 BWA       0.148500
     30 H3          -5.5560    -0.7890    -3.2620 h4         1 BWA       0.029100
     31 H4          -6.0760     0.1730    -7.2720 h4         1 BWA       0.026100
     32 H5          -4.6090     2.1430    -7.0540 ha         1 BWA       0.142000
     33 H6          -3.5820     2.6570    -4.8450 ha         1 BWA       0.144000
     34 H7           3.0880    -0.5070     3.5690 h1         1 BWA       0.074700
     35 H8           1.5570    -0.5060     4.4550 h1         1 BWA       0.074700
     36 H9           5.1040     4.5760     3.8610 ha         1 BWA       0.150500
     37 H10          4.3760     6.5890     5.0930 ha         1 BWA       0.141000
     38 H11          2.2450     6.5940     6.3160 ha         1 BWA       0.141000
     39 H12          0.8070     4.5890     6.3270 ha         1 BWA       0.150500
     40 H13         -0.3380    -0.5100    -1.9970 hn         1 BWA       0.318500
     41 H14         -2.2720    -0.0110    -3.2070 hn         1 BWA       0.311500
     42 H15         -3.7480     2.2900    -2.4200 h1         1 BWA       0.062200
     43 H16         -4.5680     0.8630    -1.7730 h1         1 BWA       0.062200
     44 H17         -1.7750     0.0020     1.2080 ha         1 BWA       0.148500
     45 H18         -0.5350     0.0040     3.3370 ha         1 BWA       0.146500
     46 C18          2.1410     0.0040     3.6990 c3         1 BWA       0.164300
     47 O28          4.4010     1.7070     3.1040 o          1 BWA      -0.580500
@<TRIPOS>BOND
     1     6     7 ar
     2     6    25 ar
     3     7     8 ar
     4    25     5 ar
     5     8    21 ar
     6     5    21 ar
     7    21    20 1
     8    18    20 1
     9    18     2 1
    10    17     2 1
    11    17     1 1
    12     4     3 ar
    13     4     1 ar
    14     2    19 2
    15     3    24 ar
    16     1    22 ar
    17    24    46 1
    18    24    23 ar
    19    22    23 ar
    20    27    12 2
    21    46    26 1
    22    12    26 1
    23    12    11 1
    24    26     9 1
    25    11    16 ar
    26    11    10 ar
    27     9    47 2
    28     9    10 1
    29    16    15 ar
    30    10    13 ar
    31    15    14 ar
    32    13    14 ar
    33     3    28 1
    34     4    29 1
    35     5    30 1
    36     6    31 1
    37     7    32 1
    38     8    33 1
    39    46    34 1
    40    46    35 1
    41    13    36 1
    42    14    37 1
    43    15    38 1
    44    16    39 1
    45    17    40 1
    46    18    41 1
    47    20    42 1
    48    20    43 1
    49    22    44 1
    50    23    45 1
@<TRIPOS>SUBSTRUCTURE
     1 BWA         1 TEMP              0 ****  ****    0 ROOT
