@<TRIPOS>MOLECULE
BWD
   23    23     1     0     0
SMALL
bcc


@<TRIPOS>ATOM
      1 N1         -0.3850    0.3250    0.4540 n         1 BWD     -0.378000
      2 C2          0.3260    1.3910    1.0620 c         1 BWD      0.810500
      3 O2          0.1390    2.5770    0.6890 o         1 BWD     -0.704500
      4 N3          1.2540    1.0970    2.0570 n         1 BWD     -0.575500
      5 C4          1.5420   -0.2190    2.4870 c         1 BWD      0.725700
      6 O4          2.3780   -0.3550    3.3890 o         1 BWD     -0.566500
      7 C5          0.8030   -1.2920    1.7980 cc        1 BWD     -0.240500
      8 BR5         1.1290   -3.0630    2.2420 br        1 BWD      0.010300
      9 C6         -0.1200   -0.9780    0.8400 cd        1 BWD      0.080600
     10 C7         -1.4740    0.6200   -0.4590 c3        1 BWD      0.087000
     11 C8         -1.0520    1.0100   -1.8750 c3        1 BWD     -0.111500
     12 N8         -0.5550    2.4060   -1.9880 n4        1 BWD     -0.824600
     13 C9         -2.3350    0.8050   -2.8520 c         1 BWD      0.946600
     14 O91        -2.9360   -0.2670   -2.6850 o         1 BWD     -0.747300
     15 O92        -2.5240    1.7510   -3.6520 o         1 BWD     -0.747300
     16 H3          1.7210    1.8660    2.4920 hn        1 BWD      0.360500
     17 H6         -0.7080   -1.7580    0.3100 h4        1 BWD      0.194000
     18 H71        -2.1070    1.4350   -0.0000 h1        1 BWD      0.110700
     19 H72        -2.1230   -0.3050   -0.5720 h1        1 BWD      0.110700
     20 H8         -0.2600    0.3190   -2.2750 hx        1 BWD      0.097700
     21 H81        -0.8480    2.9570   -1.1740 hn        1 BWD      0.453800
     22 H82        -0.9870    2.8050   -2.8500 hn        1 BWD      0.453800
     23 H83         0.4580    2.4380   -2.0520 hn        1 BWD      0.453800
@<TRIPOS>BOND
     1    1    2 1   
     2    1    9 1   
     3    1   10 1   
     4    2    3 2   
     5    2    4 1   
     6    4    5 1   
     7    4   16 1   
     8    5    6 2   
     9    5    7 1   
    10    7    8 1   
    11    7    9 2   
    12    9   17 1   
    13   10   11 1   
    14   10   18 1   
    15   10   19 1   
    16   11   12 1   
    17   11   13 1   
    18   11   20 1   
    19   12   21 1   
    20   12   22 1   
    21   12   23 1   
    22   13   14 1   
    23   13   15 1   
@<TRIPOS>SUBSTRUCTURE
     1 BWD         1 TEMP              0 ****  ****    0 ROOT
