@<TRIPOS>MOLECULE
molecule
   57    59     1     0     0
SMALL
bcc


@<TRIPOS>ATOM
      1 C1           0.0000     0.0000     0.0000 c3         1 BWE      -0.074100
      2 C2           1.5300     0.0000     0.0000 c3         1 BWE      -0.205600
      3 O4           1.8380     1.2360     2.3440 o          1 BWE      -0.617800
      4 O5           1.8380    -1.2380     2.3440 o          1 BWE      -0.617800
      5 C7           4.5790    -1.1970     1.5070 ca         1 BWE      -0.028000
      6 C8           5.9560    -1.1960     1.3860 ca         1 BWE      -0.128500
      7 C9           6.6440     0.0010     1.3200 ca         1 BWE      -0.058300
      8 C10          5.9550     1.1980     1.3750 ca         1 BWE      -0.128500
      9 C11          4.5780     1.1980     1.4960 ca         1 BWE      -0.028000
     10 C12          8.1460     0.0020     1.1890 c3         1 BWE       0.098000
     11 C16          9.0120     1.5860    -2.1850 c3         1 BWE      -0.166100
     12 C20          9.4590    -0.1870     4.7110 cc         1 BWE       0.094500
     13 C21          9.6230    -1.0150     5.7500 cc         1 BWE      -0.201000
     14 C22         10.2170    -0.4350     6.8700 cc         1 BWE      -0.065000
     15 C27          9.6980    -2.5570     9.9430 ca         1 BWE      -0.013000
     16 C31         11.7780    -1.2490     8.6410 ca         1 BWE       0.176100
     17 C33         14.0330    -1.9430     7.6490 c3         1 BWE      -0.127300
     18 C34          8.6320    -3.2520    10.6000 cg         1 BWE       0.236800
     19 S3           2.1340     0.0000     1.7100 sy         1 BWE       1.191300
     20 C6           3.8900    -0.0000     1.5560 ca         1 BWE      -0.288500
     21 N13          8.5460     0.9700     0.1660 ns         1 BWE      -0.578900
     22 O15          8.0310    -0.4390    -1.4700 o          1 BWE      -0.605100
     23 C17          8.7650     0.3810     2.5090 c          1 BWE       0.654100
     24 O18          9.1560     1.5140     2.6920 o          1 BWE      -0.590100
     25 N19          8.8850    -0.5390     3.4870 ns         1 BWE      -0.426100
     26 C23         10.5290     0.8650     6.7260 cd         1 BWE      -0.112100
     27 S24         10.0680     1.4100     5.1190 ss         1 BWE      -0.004800
     28 C25         10.4810    -1.1900     8.1200 ca         1 BWE      -0.021000
     29 C26          9.4410    -1.8390     8.7730 ca         1 BWE      -0.061000
     30 C28         10.9980    -2.6170    10.4540 ca         1 BWE      -0.124000
     31 C29         12.0270    -1.9650     9.8050 ca         1 BWE       0.081900
     32 F30         13.2820    -2.0250    10.3030 f          1 BWE      -0.112900
     33 N35          7.7940    -3.7930    11.1360 n1         1 BWE      -0.345800
     34 H1          -0.3610     0.8890     0.5020 hc         1 BWE       0.052367
     35 H2          -0.3610    -0.8800     0.5190 hc         1 BWE       0.052367
     36 H3          -0.3610    -0.0100    -1.0210 hc         1 BWE       0.052367
     37 H4           1.8910     0.8850    -0.5110 h1         1 BWE       0.099200
     38 H5           1.8910    -0.8850    -0.5110 h1         1 BWE       0.099200
     39 H6           4.0410    -2.1360     1.5590 ha         1 BWE       0.155000
     40 H7           6.4970    -2.1340     1.3470 ha         1 BWE       0.140500
     41 H8           6.4940     2.1360     1.3240 ha         1 BWE       0.140500
     42 H9           4.0380     2.1360     1.5400 ha         1 BWE       0.155000
     43 H10          8.4830    -0.9870     0.9020 h1         1 BWE       0.095700
     44 H11          8.5290     2.5480    -2.0670 hc         1 BWE       0.065033
     45 H12          8.7960     1.1910    -3.1700 hc         1 BWE       0.065033
     46 H13         10.0830     1.7030    -2.0700 hc         1 BWE       0.065033
     47 H14          9.3860    -2.0720     5.7620 ha         1 BWE       0.153000
     48 H15         15.0170    -1.8600     8.0960 h1         1 BWE       0.098367
     49 H16         13.5460    -2.8400     8.0110 h1         1 BWE       0.098367
     50 H17         13.4410    -1.0760     7.9170 h1         1 BWE       0.098367
     51 H18          8.8170     1.8960     0.4320 hn         1 BWE       0.338500
     52 H19          8.6270    -1.4900     3.3110 hn         1 BWE       0.339500
     53 H20         10.9940     1.4960     7.4740 h4         1 BWE       0.176000
     54 H21          8.4270    -1.7520     8.4030 ha         1 BWE       0.164000
     55 H22         11.1950    -3.1590    11.3710 ha         1 BWE       0.158000
     56 C14          8.4950     0.6320    -1.1390 c          1 BWE       0.661100
     57 O32         13.0090    -1.2280     8.5330 os         1 BWE      -0.327900
@<TRIPOS>BOND
     1    33    18 3
     2    18    15 1
     3    30    15 ar
     4    30    31 ar
     5    15    29 ar
     6    32    31 1
     7    31    16 ar
     8    29    28 ar
     9     3    19 2
    10     1     2 1
    11    16    28 ar
    12    16    57 1
    13    28    14 1
    14     2    19 1
    15    19     4 2
    16    19    20 1
    17    57    17 1
    18    14    13 1
    19    14    26 2
    20     9    20 ar
    21     9     8 ar
    22    13    12 2
    23    20     5 ar
    24    26    27 1
    25     8     7 ar
    26    12    27 1
    27    12    25 1
    28     5     6 ar
    29    25    23 1
    30     7     6 ar
    31     7    10 1
    32    23    10 1
    33    23    24 2
    34    10    21 1
    35    21    56 1
    36    22    56 2
    37    56    11 1
    38     1    34 1
    39     1    35 1
    40     1    36 1
    41     2    37 1
    42     2    38 1
    43     5    39 1
    44     6    40 1
    45     8    41 1
    46     9    42 1
    47    10    43 1
    48    11    44 1
    49    11    45 1
    50    11    46 1
    51    13    47 1
    52    17    48 1
    53    17    49 1
    54    17    50 1
    55    21    51 1
    56    25    52 1
    57    26    53 1
    58    29    54 1
    59    30    55 1
@<TRIPOS>SUBSTRUCTURE
     1 BWE         1 TEMP              0 ****  ****    0 ROOT
