@<TRIPOS>MOLECULE
molecule
   36    37     1     0     0
SMALL
bcc


@<TRIPOS>ATOM
      1 C1           0.0000     0.0000     0.0000 c3         1 BWG       0.425300
      2 N1          -0.4880    -1.2240     0.6400 nu         1 BWG      -0.910900
      3 C2           1.5310     0.0000     0.0000 c3         1 BWG       0.088100
      4 O2           2.0070     1.1680    -0.6720 oh         1 BWG      -0.570800
      5 C3           2.0330     0.0000     1.4470 c3         1 BWG       0.126100
      6 O3           3.4610     0.0750     1.4560 oh         1 BWG      -0.587800
      7 C4           1.4520     1.2140     2.1780 c3         1 BWG       0.114100
      8 O4           1.8570     1.1850     3.5480 oh         1 BWG      -0.606800
      9 C5          -0.0760     1.1660     2.0940 c3         1 BWG       0.140100
     10 O5          -0.4760     1.1380     0.7230 os         1 BWG      -0.377600
     11 C6          -0.6620     2.4070     2.7710 c3         1 BWG       0.153400
     12 O6          -2.0880     2.3070     2.7960 oh         1 BWG      -0.598800
     13 C13         -1.5780    -1.8850     0.1210 cc         1 BWG       0.747300
     14 S14         -2.2480    -3.3180     0.7680 ss         1 BWG      -0.212300
     15 C15         -3.2590    -2.2400    -1.3000 cd         1 BWG       0.505200
     16 C16         -3.4740    -3.3330    -0.4970 cc         1 BWG      -0.300000
     17 N17         -2.2480    -1.5010    -0.9300 nd         1 BWG      -0.776000
     18 C18         -4.4900    -4.2940    -0.6550 c          1 BWG       0.616700
     19 O19         -5.2800    -4.1960    -1.5740 o          1 BWG      -0.542100
     20 C20         -4.5980    -5.4440     0.3110 c3         1 BWG      -0.194100
     21 H1          -0.3590     0.0470    -1.0210 h2         1 BWG       0.131700
     22 HN1          0.0020    -1.6070     1.4250 hn         1 BWG       0.450800
     23 H2           1.8910    -0.8870    -0.5070 h1         1 BWG       0.047700
     24 HO2          2.3560     0.9270    -1.5140 ho         1 BWG       0.410000
     25 H3           1.7100    -0.9080     1.9410 h1         1 BWG       0.038700
     26 HO3          3.8190    -0.7740     1.6560 ho         1 BWG       0.404000
     27 H4           1.8100     2.1220     1.7090 h1         1 BWG       0.078700
     28 HO4          2.5220     1.8370     3.6940 ho         1 BWG       0.416000
     29 H5          -0.4360     0.2730     2.5920 h1         1 BWG       0.055700
     30 H6          -0.3720     3.2920     2.2170 h1         1 BWG       0.036700
     31 H6A         -0.2880     2.4760     3.7850 h1         1 BWG       0.036700
     32 HO6         -2.4440     3.0160     3.3050 ho         1 BWG       0.403000
     33 H15         -3.8770    -2.0090    -2.1600 h4         1 BWG       0.067100
     34 H20         -4.7570    -5.0610     1.3120 hc         1 BWG       0.061033
     35 H20A        -3.6820    -6.0230     0.2880 hc         1 BWG       0.061033
     36 H20B        -5.4310    -6.0760     0.0290 hc         1 BWG       0.061033
@<TRIPOS>BOND
     1     1     2 1
     2     1     3 1
     3     1    10 1
     4     2    13 1
     5     3     4 1
     6     3     5 1
     7     5     6 1
     8     5     7 1
     9     7     8 1
    10     7     9 1
    11     9    10 1
    12     9    11 1
    13    11    12 1
    14    13    14 1
    15    13    17 2
    16    14    16 1
    17    15    16 2
    18    15    17 1
    19    16    18 1
    20    18    19 2
    21    18    20 1
    22     1    21 1
    23     2    22 1
    24     3    23 1
    25     4    24 1
    26     5    25 1
    27     6    26 1
    28     7    27 1
    29     8    28 1
    30     9    29 1
    31    11    30 1
    32    11    31 1
    33    12    32 1
    34    15    33 1
    35    20    34 1
    36    20    35 1
    37    20    36 1
@<TRIPOS>SUBSTRUCTURE
     1 BWG         1 TEMP              0 ****  ****    0 ROOT
