@<TRIPOS>MOLECULE
BWG
   36    37     1     0     0
SMALL
bcc


@<TRIPOS>ATOM
      1 C1           0.0000     0.0000     0.0000 c3         1 BWG       0.326300
      2 N1          -0.4880    -1.2240     0.6400 nu         1 BWG      -0.488900
      3 C2           1.5310     0.0000     0.0000 c3         1 BWG       0.126100
      4 O2           2.0070     1.1680    -0.6720 oh         1 BWG      -0.549800
      5 C3           2.0330     0.0000     1.4470 c3         1 BWG       0.156100
      6 O3           3.4610     0.0750     1.4560 oh         1 BWG      -0.566800
      7 C4           1.4520     1.2140     2.1780 c3         1 BWG       0.147100
      8 O4           1.8570     1.1850     3.5480 oh         1 BWG      -0.585800
      9 C5          -0.0760     1.1660     2.0940 c3         1 BWG       0.151100
     10 O5          -0.4760     1.1380     0.7230 os         1 BWG      -0.360600
     11 C6          -0.6620     2.4070     2.7710 c3         1 BWG       0.228400
     12 O6          -2.0880     2.3070     2.7960 oh         1 BWG      -0.582800
     13 C13         -1.5780    -1.8850     0.1210 cc         1 BWG       0.602300
     14 S14         -2.2480    -3.3180     0.7680 ss         1 BWG      -0.305300
     15 C15         -3.2590    -2.2400    -1.3000 cd         1 BWG       0.510200
     16 C16         -3.4740    -3.3330    -0.4970 cc         1 BWG      -0.278000
     17 N17         -2.2480    -1.5010    -0.9300 nd         1 BWG      -0.679000
     18 C18         -4.4900    -4.2940    -0.6550 c          1 BWG       0.669700
     19 O19         -5.2800    -4.1960    -1.5740 o          1 BWG      -0.575100
     20 C20         -4.5980    -5.4440     0.3110 c3         1 BWG      -0.091100
     21 H1          -0.3590     0.0470    -1.0210 h2         1 BWG       0.086700
     22 HN1          0.0020    -1.6070     1.4250 hn         1 BWG       0.305800
     23 H2           1.8910    -0.8870    -0.5070 h1         1 BWG       0.011700
     24 HO2          2.3560     0.9270    -1.5140 ho         1 BWG       0.393000
     25 H3           1.7100    -0.9080     1.9410 h1         1 BWG       0.008700
     26 HO3          3.8190    -0.7740     1.6560 ho         1 BWG       0.390000
     27 H4           1.8100     2.1220     1.7090 h1         1 BWG       0.042700
     28 HO4          2.5220     1.8370     3.6940 ho         1 BWG       0.402000
     29 H5          -0.4360     0.2730     2.5920 h1         1 BWG       0.022700
     30 H6          -0.3720     3.2920     2.2170 h1         1 BWG      -0.000800
     31 H6A         -0.2880     2.4760     3.7850 h1         1 BWG      -0.000800
     32 HO6         -2.4440     3.0160     3.3050 ho         1 BWG       0.389000
     33 H15         -3.8770    -2.0090    -2.1600 h4         1 BWG       0.015100
     34 H20         -4.7570    -5.0610     1.3120 hc         1 BWG       0.026700
     35 H20A        -3.6820    -6.0230     0.2880 hc         1 BWG       0.026700
     36 H20B        -5.4310    -6.0760     0.0290 hc         1 BWG       0.026700
@<TRIPOS>BOND
     1     1     2 1   
     2     1     3 1   
     3     1    10 1   
     4     1    21 1   
     5     2    13 1   
     6     2    22 1   
     7     3     4 1   
     8     3     5 1   
     9     3    23 1   
    10     4    24 1   
    11     5     6 1   
    12     5     7 1   
    13     5    25 1   
    14     6    26 1   
    15     7     8 1   
    16     7     9 1   
    17     7    27 1   
    18     8    28 1   
    19     9    10 1   
    20     9    11 1   
    21     9    29 1   
    22    11    12 1   
    23    11    30 1   
    24    11    31 1   
    25    12    32 1   
    26    13    14 1   
    27    13    17 2   
    28    14    16 1   
    29    15    16 2   
    30    15    17 1   
    31    15    33 1   
    32    16    18 1   
    33    18    19 2   
    34    18    20 1   
    35    20    34 1   
    36    20    35 1   
    37    20    36 1   
@<TRIPOS>SUBSTRUCTURE
     1 BWG         1 TEMP              0 ****  ****    0 ROOT
