@<TRIPOS>MOLECULE
BWJ
   23    23     1     0     0
SMALL
bcc


@<TRIPOS>ATOM
      1 C11          0.0000     0.0000     0.0000 ca         1 BWJ      -0.407000
      2 C12          1.3840     0.0000     0.0000 ca         1 BWJ       0.045900
      3 C14          2.0760     0.0000     1.1970 ca         1 BWJ      -0.171500
      4 O01         -0.3450     2.0550     3.9810 o          1 BWJ      -0.743000
      5 P02          0.6550     1.6620     5.1800 p5         1 BWJ       0.451200
      6 O03          1.8530     2.7350     5.2530 o          1 BWJ      -0.743000
      7 O04         -0.0870     1.6630     6.4610 o          1 BWJ      -0.743000
      8 C05          1.3440     0.0010     4.8780 c3         1 BWJ       0.124100
      9 C07          1.3820     0.0010     2.4000 ca         1 BWJ      -0.075400
     10 C08         -0.0070     0.0010     2.3970 ca         1 BWJ      -0.171500
     11 C09         -0.6940     0.0060     1.1970 ca         1 BWJ       0.045900
     12 Cl1         -2.4310     0.0080     1.1920 cl         1 BWJ      -0.241900
     13 Cl2          2.2520    -0.0010    -1.5030 cl         1 BWJ      -0.241900
     14 P15          2.4760    -0.4430     6.2360 p5         1 BWJ       0.451200
     15 O16          3.0360    -1.7910     5.9900 o          1 BWJ      -0.743000
     16 O17          3.6740     0.6300     6.3090 o          1 BWJ      -0.743000
     17 O18          1.6700    -0.4420     7.6300 o          1 BWJ      -0.743000
     18 H1          -0.5410    -0.0040    -0.9390 ha         1 BWJ       0.067000
     19 H2           3.1460    -0.0150     1.0280 ha         1 BWJ       0.128500
     20 H5           0.5380    -0.7210     4.8280 h1         1 BWJ       0.025700
     21 H6           3.0790    -0.0190     3.6110 hn         1 BWJ       0.256800
     22 H7          -0.5500    -0.0700     3.3310 ha         1 BWJ       0.128500
     23 N06          2.0780     0.0010     3.6100 nu         1 BWJ       0.041400
@<TRIPOS>BOND
     1     1     2 ar  
     2     1    11 ar  
     3     1    18 1   
     4     2     3 ar  
     5     2    13 1   
     6     3     9 ar  
     7     3    19 1   
     8     4     5 1   
     9     5     6 1   
    10     5     7 1   
    11     5     8 1   
    12     8    14 1   
    13     8    20 1   
    14     8    23 1   
    15     9    10 ar  
    16     9    23 1   
    17    10    11 ar  
    18    10    22 1   
    19    11    12 1   
    20    14    15 1   
    21    14    16 1   
    22    14    17 1   
    23    21    23 1   
@<TRIPOS>SUBSTRUCTURE
     1 BWJ         1 TEMP              0 ****  ****    0 ROOT
