@<TRIPOS>MOLECULE
molecule
   23    23     1     0     0
SMALL
bcc


@<TRIPOS>ATOM
      1 C11          0.0000     0.0000     0.0000 ca         1 BWJ      -0.310000
      2 C12          1.3840     0.0000     0.0000 ca         1 BWJ       0.052900
      3 C14          2.0760     0.0000     1.1970 ca         1 BWJ      -0.171000
      4 O01         -0.3450     2.0550     3.9810 o          1 BWJ      -0.915000
      5 P02          0.6550     1.6620     5.1800 p5         1 BWJ       1.071700
      6 O03          1.8530     2.7350     5.2530 o          1 BWJ      -0.915000
      7 O04         -0.0870     1.6630     6.4610 o          1 BWJ      -0.915000
      8 C05          1.3440     0.0010     4.8780 c3         1 BWJ      -0.092900
      9 C07          1.3820     0.0010     2.4000 ca         1 BWJ       0.209600
     10 C08         -0.0070     0.0010     2.3970 ca         1 BWJ      -0.171000
     11 C09         -0.6940     0.0060     1.1970 ca         1 BWJ       0.052900
     12 Cl1         -2.4310     0.0080     1.1920 cl         1 BWJ      -0.251900
     13 Cl2          2.2520    -0.0010    -1.5030 cl         1 BWJ      -0.251900
     14 P15          2.4760    -0.4430     6.2360 p5         1 BWJ       1.071700
     15 O16          3.0360    -1.7910     5.9900 o          1 BWJ      -0.915000
     16 O17          3.6740     0.6300     6.3090 o          1 BWJ      -0.915000
     17 O18          1.6700    -0.4420     7.6300 o          1 BWJ      -0.915000
     18 H1          -0.5410    -0.0040    -0.9390 ha         1 BWJ       0.072000
     19 H2           3.1460    -0.0150     1.0280 ha         1 BWJ       0.151000
     20 H5           0.5380    -0.7210     4.8280 h1         1 BWJ       0.032700
     21 H6           3.0790    -0.0190     3.6110 hn         1 BWJ       0.443800
     22 H7          -0.5500    -0.0700     3.3310 ha         1 BWJ       0.151000
     23 N06          2.0780     0.0010     3.6100 nu         1 BWJ      -0.569600
@<TRIPOS>BOND
     1     7     5 1
     2     6     5 1
     3    15    14 1
     4     5     4 1
     5     5     8 1
     6    17    14 1
     7    14     8 1
     8    14    16 1
     9     8    23 1
    10    23     9 1
    11     9     3 ar
    12     9    10 ar
    13     3     2 ar
    14    10    11 ar
    15     2     1 ar
    16     2    13 1
    17    11     1 ar
    18    11    12 1
    19     1    18 1
    20     3    19 1
    21     8    20 1
    22    23    21 1
    23    10    22 1
@<TRIPOS>SUBSTRUCTURE
     1 BWJ         1 TEMP              0 ****  ****    0 ROOT
