@<TRIPOS>MOLECULE
BWM
   34    35     1     0     0
SMALL
bcc


@<TRIPOS>ATOM
      1 C4           0.0000     0.0000     0.0000 ca         1 BWM      -0.082000
      2 C5           1.3820     0.0000     0.0000 ca         1 BWM      -0.074000
      3 C6           2.0770     0.0000     1.1970 ca         1 BWM      -0.091000
      4 N1          -0.6980     0.0010     3.6130 na         1 BWM       0.253200
      5 C7           1.3900    -0.0000     2.3940 ca         1 BWM      -0.072000
      6 C8           0.0020     0.0010     2.3980 ca         1 BWM      -0.174200
      7 N2          -1.7250     0.6450     5.3870 nc         1 BWM      -0.321500
      8 C9          -1.1080     1.0880     4.3250 cd         1 BWM       0.159800
      9 C10         -0.8890     2.5330     3.9570 c3         1 BWM       0.012600
     10 C11         -1.1140    -1.0860     4.3230 cd         1 BWM       0.159800
     11 C12         -0.9030    -2.5310     3.9520 c3         1 BWM       0.012600
     12 N3          -1.7290    -0.6410     5.3850 nc         1 BWM      -0.321500
     13 O           -4.7970     0.7130     1.3180 o          1 BWM      -0.639100
     14 C1          -4.0050     1.6170     1.4800 c          1 BWM       0.575100
     15 C           -4.5010     3.0180     1.7300 c3         1 BWM      -0.065100
     16 N           -2.6810     1.3690     1.4380 ns         1 BWM      -0.218900
     17 C3          -0.6910     0.0000     1.1960 ca         1 BWM      -0.092300
     18 H1          -0.5410    -0.0000    -0.9380 ha         1 BWM       0.118000
     19 H2           1.9230    -0.0000    -0.9390 ha         1 BWM       0.111000
     20 H3           3.1600    -0.0000     1.1940 ha         1 BWM       0.113000
     21 H4           1.9350    -0.0000     3.3310 ha         1 BWM       0.119000
     22 H5          -1.8230     3.0740     4.0470 hc         1 BWM       0.014533
     23 H6          -0.5320     2.5960     2.9360 hc         1 BWM       0.014533
     24 H7          -0.1540     2.9690     4.6230 hc         1 BWM       0.014533
     25 H8           0.1530    -2.7110     3.7910 hc         1 BWM       0.014533
     26 H9          -1.4500    -2.7540     3.0440 hc         1 BWM       0.014533
     27 H10         -1.2600    -3.1650     4.7540 hc         1 BWM       0.014533
     28 H11         -3.8380     3.7270     1.2490 hc         1 BWM       0.024033
     29 H12         -4.5210     3.2090     2.7970 hc         1 BWM       0.024033
     30 H13         -5.5000     3.1260     1.3250 hc         1 BWM       0.024033
     31 H14         -2.0290     2.1240     1.5100 hn         1 BWM       0.181500
     32 H15         -2.5640    -0.6500     1.9760 h1         1 BWM       0.038200
     33 H16         -2.5620    -0.3390     0.2350 h1         1 BWM       0.038200
     34 C2          -2.1990     0.0070     1.1960 c3         1 BWM       0.100300
@<TRIPOS>BOND
     1     1     2 ar  
     2     1    17 ar  
     3     1    18 1   
     4     2     3 ar  
     5     2    19 1   
     6     3     5 ar  
     7     3    20 1   
     8     4     6 1   
     9     4     8 1   
    10     4    10 1   
    11     5     6 ar  
    12     5    21 1   
    13     6    17 ar  
    14     7     8 2   
    15     7    12 1   
    16     8     9 1   
    17     9    22 1   
    18     9    23 1   
    19     9    24 1   
    20    10    11 1   
    21    10    12 2   
    22    11    25 1   
    23    11    26 1   
    24    11    27 1   
    25    13    14 2   
    26    14    15 1   
    27    14    16 1   
    28    15    28 1   
    29    15    29 1   
    30    15    30 1   
    31    16    31 1   
    32    16    34 1   
    33    17    34 1   
    34    32    34 1   
    35    33    34 1   
@<TRIPOS>SUBSTRUCTURE
     1 BWM         1 TEMP              0 ****  ****    0 ROOT
