@<TRIPOS>MOLECULE
molecule
   34    35     1     0     0
SMALL
bcc


@<TRIPOS>ATOM
      1 C4           0.0000     0.0000     0.0000 ca         1 BWM      -0.110000
      2 C5           1.3820     0.0000     0.0000 ca         1 BWM      -0.117000
      3 C6           2.0770     0.0000     1.1970 ca         1 BWM      -0.118000
      4 N1          -0.6980     0.0010     3.6130 na         1 BWM      -0.262800
      5 C7           1.3900    -0.0000     2.3940 ca         1 BWM      -0.116000
      6 C8           0.0020     0.0010     2.3980 ca         1 BWM      -0.006200
      7 N2          -1.7250     0.6450     5.3870 nc         1 BWM      -0.349500
      8 C9          -1.1080     1.0880     4.3250 cd         1 BWM       0.367300
      9 C10         -0.8890     2.5330     3.9570 c3         1 BWM      -0.103400
     10 C11         -1.1140    -1.0860     4.3230 cd         1 BWM       0.367300
     11 C12         -0.9030    -2.5310     3.9520 c3         1 BWM      -0.103400
     12 N3          -1.7290    -0.6410     5.3850 nc         1 BWM      -0.349500
     13 O           -4.7970     0.7130     1.3180 o          1 BWM      -0.603100
     14 C1          -4.0050     1.6170     1.4800 c          1 BWM       0.658100
     15 C           -4.5010     3.0180     1.7300 c3         1 BWM      -0.169100
     16 N           -2.6810     1.3690     1.4380 ns         1 BWM      -0.589900
     17 C3          -0.6910     0.0000     1.1960 ca         1 BWM      -0.102300
     18 H1          -0.5410    -0.0000    -0.9380 ha         1 BWM       0.146000
     19 H2           1.9230    -0.0000    -0.9390 ha         1 BWM       0.140000
     20 H3           3.1600    -0.0000     1.1940 ha         1 BWM       0.142000
     21 H4           1.9350    -0.0000     3.3310 ha         1 BWM       0.149000
     22 H5          -1.8230     3.0740     4.0470 hc         1 BWM       0.056867
     23 H6          -0.5320     2.5960     2.9360 hc         1 BWM       0.056867
     24 H7          -0.1540     2.9690     4.6230 hc         1 BWM       0.056867
     25 H8           0.1530    -2.7110     3.7910 hc         1 BWM       0.056867
     26 H9          -1.4500    -2.7540     3.0440 hc         1 BWM       0.056867
     27 H10         -1.2600    -3.1650     4.7540 hc         1 BWM       0.056867
     28 H11         -3.8380     3.7270     1.2490 hc         1 BWM       0.061367
     29 H12         -4.5210     3.2090     2.7970 hc         1 BWM       0.061367
     30 H13         -5.5000     3.1260     1.3250 hc         1 BWM       0.061367
     31 H14         -2.0290     2.1240     1.5100 hn         1 BWM       0.313500
     32 H15         -2.5640    -0.6500     1.9760 h1         1 BWM       0.066200
     33 H16         -2.5620    -0.3390     0.2350 h1         1 BWM       0.066200
     34 C2          -2.1990     0.0070     1.1960 c3         1 BWM       0.157300
@<TRIPOS>BOND
     1     3     5 ar
     2     3     2 ar
     3     5     6 ar
     4     2     1 ar
     5     6     4 1
     6     6    17 ar
     7     1    17 ar
     8     4     8 1
     9     4    10 1
    10     9     8 1
    11    17    34 1
    12    11    10 1
    13     8     7 2
    14    10    12 2
    15     7    12 1
    16    34    16 1
    17    16    14 1
    18    14    13 2
    19    14    15 1
    20     1    18 1
    21     2    19 1
    22     3    20 1
    23     5    21 1
    24     9    22 1
    25     9    23 1
    26     9    24 1
    27    11    25 1
    28    11    26 1
    29    11    27 1
    30    15    28 1
    31    15    29 1
    32    15    30 1
    33    16    31 1
    34    34    32 1
    35    34    33 1
@<TRIPOS>SUBSTRUCTURE
     1 BWM         1 TEMP              0 ****  ****    0 ROOT
