@<TRIPOS>MOLECULE
BWP
   53    55     1     0     0
SMALL
bcc


@<TRIPOS>ATOM
      1 C22          0.0000     0.0000     0.0000 c3         1 BWP       0.151400
      2 N1          -6.1030    -1.3910    -2.9640 nb         1 BWP      -0.732000
      3 C2          -6.7750    -2.0460    -3.8990 ca         1 BWP       0.549200
      4 C6          -6.7360    -0.6710    -2.0500 ca         1 BWP       0.743900
      5 C4          -8.7950    -1.2070    -2.9400 ca         1 BWP       0.589200
      6 C3          -8.1550    -1.9750    -3.9170 ca         1 BWP      -0.358500
      7 N5          -8.0580    -0.5810    -2.0280 nb         1 BWP      -0.752000
      8 C11        -12.0700     0.8960     0.2040 ca         1 BWP      -0.116000
      9 C10        -12.6170     0.9230    -1.0650 ca         1 BWP      -0.083000
     10 C9         -11.9930     0.2590    -2.1030 ca         1 BWP      -0.120000
     11 C8         -10.8120    -0.4350    -1.8710 ca         1 BWP      -0.006400
     12 C12        -10.8950     0.2060     0.4390 ca         1 BWP      -0.083000
     13 C17         -2.5840     0.0000    -2.4510 ca         1 BWP      -0.165000
     14 C16         -3.9630     0.0010    -2.3870 ca         1 BWP      -0.073500
     15 C13        -10.2680    -0.4650    -0.5930 ca         1 BWP      -0.120000
     16 C15         -4.6000    -0.0010    -1.1540 ca         1 BWP      -0.045400
     17 C18         -1.8350     0.0010    -1.2830 ca         1 BWP       0.125100
     18 C19         -2.4700    -0.0050    -0.0520 ca         1 BWP      -0.165000
     19 C20         -3.8500    -0.0010     0.0140 ca         1 BWP      -0.073500
     20 O21         -0.4760     0.0010    -1.3460 os         1 BWP      -0.275900
     21 N7         -10.1770    -1.1070    -2.9190 nu         1 BWP      -0.289300
     22 Br          -9.1540    -2.8940    -5.2320 br         1 BWP      -0.102100
     23 C23          1.5300     0.0000     0.0000 c3         1 BWP       0.174100
     24 C24          2.0410     0.0000     1.4420 c3         1 BWP       0.123800
     25 N25          3.5100     0.0010     1.4410 n3         1 BWP      -0.507600
     26 C26          3.9320    -0.0000     2.8480 c3         1 BWP       0.164600
     27 C27          3.9310    -1.2870     0.8740 c3         1 BWP       0.164600
     28 O28          2.0060     1.1670    -0.6730 oh         1 BWP      -0.563800
     29 H221        -0.3610     0.8840     0.5110 h1         1 BWP       0.019200
     30 H222        -0.3610    -0.8850     0.5100 h1         1 BWP       0.019200
     31 H2          -6.2480    -2.6320    -4.6420 h4         1 BWP      -0.009900
     32 H10        -13.5380     1.4640    -1.2460 ha         1 BWP       0.101500
     33 H9         -12.4210     0.2820    -3.0980 ha         1 BWP       0.120500
     34 H12        -10.4700     0.1850     1.4350 ha         1 BWP       0.101500
     35 H17         -2.0860     0.0030    -3.4130 ha         1 BWP       0.123500
     36 H16         -4.5470     0.0010    -3.2990 ha         1 BWP       0.120000
     37 H13         -9.3470    -1.0050    -0.4090 ha         1 BWP       0.120500
     38 H19         -1.8850    -0.0050     0.8590 ha         1 BWP       0.123500
     39 H20         -4.3470    -0.0040     0.9770 ha         1 BWP       0.120000
     40 H7         -10.7220    -1.5610    -3.6250 hn         1 BWP       0.299800
     41 H23          1.8910    -0.8840    -0.5110 h1         1 BWP       0.012700
     42 H241         1.6800     0.8840     1.9530 h1         1 BWP       0.019700
     43 H242         1.6810    -0.8850     1.9530 h1         1 BWP       0.019700
     44 H261         3.5710     0.8980     3.3340 h1         1 BWP       0.003533
     45 H262         5.0140    -0.0290     2.9010 h1         1 BWP       0.003533
     46 H263         3.5230    -0.8700     3.3470 h1         1 BWP       0.003533
     47 H271         4.9800    -1.4520     1.0920 h1         1 BWP       0.003533
     48 H272         3.7830    -1.2750    -0.1990 h1         1 BWP       0.003533
     49 H273         3.3420    -2.0840     1.3110 h1         1 BWP       0.003533
     50 H28          2.4240     0.9160    -1.4800 ho         1 BWP       0.393000
     51 N14         -5.9980    -0.0010    -1.0880 nu         1 BWP      -0.274300
     52 H11        -12.5610     1.4190     1.0150 ha         1 BWP       0.102000
     53 H14         -6.4650     0.5260    -0.3770 hn         1 BWP       0.292800
@<TRIPOS>BOND
     1     1    20 1   
     2     1    23 1   
     3     1    29 1   
     4     1    30 1   
     5     2     3 ar  
     6     2     4 ar  
     7     3     6 ar  
     8     3    31 1   
     9     4     7 ar  
    10     4    51 1   
    11     5     6 ar  
    12     5     7 ar  
    13     5    21 1   
    14     6    22 1   
    15     8     9 ar  
    16     8    12 ar  
    17     8    52 1   
    18     9    10 ar  
    19     9    32 1   
    20    10    11 ar  
    21    10    33 1   
    22    11    15 ar  
    23    11    21 1   
    24    12    15 ar  
    25    12    34 1   
    26    13    14 ar  
    27    13    17 ar  
    28    13    35 1   
    29    14    16 ar  
    30    14    36 1   
    31    15    37 1   
    32    16    19 ar  
    33    16    51 1   
    34    17    18 ar  
    35    17    20 1   
    36    18    19 ar  
    37    18    38 1   
    38    19    39 1   
    39    21    40 1   
    40    23    24 1   
    41    23    28 1   
    42    23    41 1   
    43    24    25 1   
    44    24    42 1   
    45    24    43 1   
    46    25    26 1   
    47    25    27 1   
    48    26    44 1   
    49    26    45 1   
    50    26    46 1   
    51    27    47 1   
    52    27    48 1   
    53    27    49 1   
    54    28    50 1   
    55    51    53 1   
@<TRIPOS>SUBSTRUCTURE
     1 BWP         1 TEMP              0 ****  ****    0 ROOT
