@<TRIPOS>MOLECULE
BWQ
   79    83     1     0     0
SMALL
bcc


@<TRIPOS>ATOM
      1 C01          0.0000     0.0000     0.0000 c3         1 BWQ      -0.078100
      2 C02          1.5300     0.0000     0.0000 c3         1 BWQ      -0.010700
      3 C03          2.0400     0.0000     1.4430 c3         1 BWQ      -0.078100
      4 C04          2.0410    -1.2480    -0.7210 c3         1 BWQ      -0.124400
      5 C05          3.5120    -1.4760    -0.3670 c3         1 BWQ       0.149900
      6 C06          4.2820    -0.1830    -0.5150 cc         1 BWQ      -0.291300
      7 C08          5.0780     1.7300    -1.3600 ca         1 BWQ      -0.186200
      8 C09          5.3900     2.8520    -2.1260 ca         1 BWQ      -0.239000
      9 C10          6.2940     3.7530    -1.5780 ca         1 BWQ       0.177100
     10 C12          6.1190     4.9560    -3.6210 c3         1 BWQ       0.162100
     11 C13          7.0090     5.8840    -4.4750 c3         1 BWQ      -0.043400
     12 C14          6.0640     6.6760    -5.3940 c3         1 BWQ      -0.022400
     13 C15          4.6330     6.2030    -5.0680 c3         1 BWQ      -0.022400
     14 C16          4.7330     5.6480    -3.6240 c3         1 BWQ      -0.043400
     15 C17          6.8670     3.5580    -0.3270 ca         1 BWQ      -0.168000
     16 C18          6.5740     2.4620     0.4450 ca         1 BWQ      -0.001000
     17 C19          5.6650     1.5400    -0.0830 ca         1 BWQ      -0.126800
     18 C20          5.1220     0.2960     0.4270 cd         1 BWQ      -0.151400
     19 C21          5.4010    -0.3720     1.7480 c3         1 BWQ       0.070800
     20 C22          4.9510    -1.8380     1.6690 c3         1 BWQ      -0.050300
     21 C23          4.9530    -2.4390     3.0370 c          1 BWQ       0.608500
     22 C26          2.5310    -2.8480     3.0840 c3         1 BWQ      -0.058300
     23 C27          1.6390    -1.9550     3.9490 c3         1 BWQ      -0.042400
     24 C28          1.4720    -2.5860     5.3310 c3         1 BWQ      -0.078400
     25 C29          0.5940    -1.7050     6.1840 c          1 BWQ       0.700100
     26 C32         -0.5440    -1.1670     8.2070 c3         1 BWQ       0.179800
     27 C33         -0.7580    -1.7360     9.6110 c3         1 BWQ      -0.028100
     28 C34         -1.8950    -1.0250     7.5030 c3         1 BWQ      -0.028100
     29 C35          0.1230     0.2060     8.3100 c3         1 BWQ      -0.028100
     30 C36          2.5380    -2.3200     1.6870 c          1 BWQ       0.639500
     31 N07          4.2490     0.6700    -1.5880 na         1 BWQ       0.392600
     32 N25          3.8640    -2.8840     3.6610 ns         1 BWQ      -0.182900
     33 N38          3.6300    -1.9020     1.0440 n          1 BWQ      -0.113800
     34 O11          6.6290     4.8620    -2.2890 os         1 BWQ      -0.297900
     35 O24          6.0150    -2.5260     3.6160 o          1 BWQ      -0.674500
     36 O30          0.1480    -0.6780     5.7310 o          1 BWQ      -0.583000
     37 O31          0.3080    -2.0630     7.4450 os         1 BWQ      -0.407900
     38 O37          1.4790    -2.2700     1.0960 o          1 BWQ      -0.669500
     39 H1          -0.3610    -0.0450     1.0200 hc         1 BWQ       0.023033
     40 H2          -0.3610    -0.8610    -0.5490 hc         1 BWQ       0.023033
     41 H3          -0.3610     0.9060    -0.4710 hc         1 BWQ       0.023033
     42 H4           1.8910     0.8850    -0.5100 hc         1 BWQ       0.012700
     43 H5           2.0580     1.0160     1.8190 hc         1 BWQ       0.023033
     44 H6           3.0400    -0.4150     1.4730 hc         1 BWQ       0.023033
     45 H7           1.3810    -0.6010     2.0580 hc         1 BWQ       0.023033
     46 H8           1.4580    -2.1080    -0.4120 hc         1 BWQ       0.069700
     47 H9           1.9440    -1.1120    -1.7910 hc         1 BWQ       0.069700
     48 H10          3.9380    -2.2320    -1.0140 h1         1 BWQ       0.027700
     49 H11          4.9490     3.0130    -3.1020 ha         1 BWQ       0.132000
     50 H12          6.0510     3.9760    -4.0780 h1         1 BWQ       0.025700
     51 H13          7.6950     5.2930    -5.0700 hc         1 BWQ       0.025950
     52 H14          7.5570     6.5640    -3.8330 hc         1 BWQ       0.025950
     53 H15          6.1570     7.7370    -5.1940 hc         1 BWQ       0.014700
     54 H16          6.2950     6.4660    -6.4310 hc         1 BWQ       0.014700
     55 H17          3.9420     7.0370    -5.1040 hc         1 BWQ       0.014700
     56 H18          4.3290     5.4200    -5.7530 hc         1 BWQ       0.014700
     57 H19          4.7070     6.4540    -2.9010 hc         1 BWQ       0.025950
     58 H20          3.9460     4.9270    -3.4360 hc         1 BWQ       0.025950
     59 H21          7.5660     4.2950     0.0500 ha         1 BWQ       0.114000
     60 H22          7.0250     2.3180     1.4190 ha         1 BWQ       0.109000
     61 H23          6.4790    -0.3940     1.8540 hc         1 BWQ       0.047700
     62 H24          4.7490     0.1040     2.4700 hc         1 BWQ       0.047700
     63 H25          5.6530    -2.3840     1.0500 h1         1 BWQ       0.060700
     64 H26          2.1270    -3.8530     3.0760 h1         1 BWQ       0.054700
     65 H27          0.6690    -1.8510     3.4800 hc         1 BWQ       0.057200
     66 H28          2.0970    -0.9780     4.0510 hc         1 BWQ       0.057200
     67 H29          2.4430    -2.6900     5.8010 hc         1 BWQ       0.036700
     68 H30          1.0130    -3.5620     5.2290 hc         1 BWQ       0.036700
     69 H31         -1.2290    -2.7090     9.5380 hc         1 BWQ       0.019700
     70 H32         -1.3940    -1.0680    10.1790 hc         1 BWQ       0.019700
     71 H33          0.1990    -1.8350    10.1100 hc         1 BWQ       0.019700
     72 H34         -1.8200    -0.2760     6.7240 hc         1 BWQ       0.019700
     73 H35         -2.1750    -1.9750     7.0640 hc         1 BWQ       0.019700
     74 H36         -2.6470    -0.7250     8.2220 hc         1 BWQ       0.019700
     75 H37         -0.0900     0.7790     7.4160 hc         1 BWQ       0.019700
     76 H38          1.1950     0.0800     8.4110 hc         1 BWQ       0.019700
     77 H39         -0.2620     0.7310     9.1760 hc         1 BWQ       0.019700
     78 H40          3.7010     0.5350    -2.4140 hn         1 BWQ       0.116700
     79 H41          3.9700    -3.2670     4.5790 hn         1 BWQ       0.194500
@<TRIPOS>BOND
     1     1     2 1   
     2     1    39 1   
     3     1    40 1   
     4     1    41 1   
     5     2     3 1   
     6     2     4 1   
     7     2    42 1   
     8     3    43 1   
     9     3    44 1   
    10     3    45 1   
    11     4     5 1   
    12     4    46 1   
    13     4    47 1   
    14     5     6 1   
    15     5    33 1   
    16     5    48 1   
    17     6    18 2   
    18     6    31 1   
    19     7     8 ar  
    20     7    17 ar  
    21     7    31 1   
    22     8     9 ar  
    23     8    49 1   
    24     9    15 ar  
    25     9    34 1   
    26    10    11 1   
    27    10    14 1   
    28    10    34 1   
    29    10    50 1   
    30    11    12 1   
    31    11    51 1   
    32    11    52 1   
    33    12    13 1   
    34    12    53 1   
    35    12    54 1   
    36    13    14 1   
    37    13    55 1   
    38    13    56 1   
    39    14    57 1   
    40    14    58 1   
    41    15    16 ar  
    42    15    59 1   
    43    16    17 ar  
    44    16    60 1   
    45    17    18 1   
    46    18    19 1   
    47    19    20 1   
    48    19    61 1   
    49    19    62 1   
    50    20    21 1   
    51    20    33 1   
    52    20    63 1   
    53    21    32 1   
    54    21    35 2   
    55    22    23 1   
    56    22    30 1   
    57    22    32 1   
    58    22    64 1   
    59    23    24 1   
    60    23    65 1   
    61    23    66 1   
    62    24    25 1   
    63    24    67 1   
    64    24    68 1   
    65    25    36 2   
    66    25    37 1   
    67    26    27 1   
    68    26    28 1   
    69    26    29 1   
    70    26    37 1   
    71    27    69 1   
    72    27    70 1   
    73    27    71 1   
    74    28    72 1   
    75    28    73 1   
    76    28    74 1   
    77    29    75 1   
    78    29    76 1   
    79    29    77 1   
    80    30    33 1   
    81    30    38 2   
    82    31    78 1   
    83    32    79 1   
@<TRIPOS>SUBSTRUCTURE
     1 BWQ         1 TEMP              0 ****  ****    0 ROOT
