@<TRIPOS>MOLECULE
molecule
   79    83     1     0     0
SMALL
bcc


@<TRIPOS>ATOM
      1 C01          0.0000     0.0000     0.0000 c3         1 BWQ      -0.117600
      2 C02          1.5300     0.0000     0.0000 c3         1 BWQ      -0.050700
      3 C03          2.0400     0.0000     1.4430 c3         1 BWQ      -0.117600
      4 C04          2.0410    -1.2480    -0.7210 c3         1 BWQ      -0.117400
      5 C05          3.5120    -1.4760    -0.3670 c3         1 BWQ       0.192900
      6 C06          4.2820    -0.1830    -0.5150 cc         1 BWQ      -0.084300
      7 C08          5.0780     1.7300    -1.3600 ca         1 BWQ       0.002800
      8 C09          5.3900     2.8520    -2.1260 ca         1 BWQ      -0.254000
      9 C10          6.2940     3.7530    -1.5780 ca         1 BWQ       0.170100
     10 C12          6.1190     4.9560    -3.6210 c3         1 BWQ       0.136100
     11 C13          7.0090     5.8840    -4.4750 c3         1 BWQ      -0.093900
     12 C14          6.0640     6.6760    -5.3940 c3         1 BWQ      -0.083900
     13 C15          4.6330     6.2030    -5.0680 c3         1 BWQ      -0.083900
     14 C16          4.7330     5.6480    -3.6240 c3         1 BWQ      -0.093900
     15 C17          6.8670     3.5580    -0.3270 ca         1 BWQ      -0.184000
     16 C18          6.5740     2.4620     0.4450 ca         1 BWQ      -0.041000
     17 C19          5.6650     1.5400    -0.0830 ca         1 BWQ      -0.129800
     18 C20          5.1220     0.2960     0.4270 cd         1 BWQ      -0.149400
     19 C21          5.4010    -0.3720     1.7480 c3         1 BWQ      -0.002200
     20 C22          4.9510    -1.8380     1.6690 c3         1 BWQ       0.035700
     21 C23          4.9530    -2.4390     3.0370 c          1 BWQ       0.697500
     22 C26          2.5310    -2.8480     3.0840 c3         1 BWQ       0.039700
     23 C27          1.6390    -1.9550     3.9490 c3         1 BWQ      -0.086400
     24 C28          1.4720    -2.5860     5.3310 c3         1 BWQ      -0.131400
     25 C29          0.5940    -1.7050     6.1840 c          1 BWQ       0.637100
     26 C32         -0.5440    -1.1670     8.2070 c3         1 BWQ       0.159800
     27 C33         -0.7580    -1.7360     9.6110 c3         1 BWQ      -0.105100
     28 C34         -1.8950    -1.0250     7.5030 c3         1 BWQ      -0.105100
     29 C35          0.1230     0.2060     8.3100 c3         1 BWQ      -0.105100
     30 C36          2.5380    -2.3200     1.6870 c          1 BWQ       0.717500
     31 N07          4.2490     0.6700    -1.5880 na         1 BWQ      -0.162400
     32 N25          3.8640    -2.8840     3.6610 ns         1 BWQ      -0.575900
     33 N38          3.6300    -1.9020     1.0440 n          1 BWQ      -0.471800
     34 O11          6.6290     4.8620    -2.2890 os         1 BWQ      -0.323900
     35 O24          6.0150    -2.5260     3.6160 o          1 BWQ      -0.636500
     36 O30          0.1480    -0.6780     5.7310 o          1 BWQ      -0.548000
     37 O31          0.3080    -2.0630     7.4450 os         1 BWQ      -0.425900
     38 O37          1.4790    -2.2700     1.0960 o          1 BWQ      -0.634500
     39 H1          -0.3610    -0.0450     1.0200 hc         1 BWQ       0.041033
     40 H2          -0.3610    -0.8610    -0.5490 hc         1 BWQ       0.041033
     41 H3          -0.3610     0.9060    -0.4710 hc         1 BWQ       0.041033
     42 H4           1.8910     0.8850    -0.5100 hc         1 BWQ       0.040700
     43 H5           2.0580     1.0160     1.8190 hc         1 BWQ       0.041033
     44 H6           3.0400    -0.4150     1.4730 hc         1 BWQ       0.041033
     45 H7           1.3810    -0.6010     2.0580 hc         1 BWQ       0.041033
     46 H8           1.4580    -2.1080    -0.4120 hc         1 BWQ       0.080200
     47 H9           1.9440    -1.1120    -1.7910 hc         1 BWQ       0.080200
     48 H10          3.9380    -2.2320    -1.0140 h1         1 BWQ       0.062700
     49 H11          4.9490     3.0130    -3.1020 ha         1 BWQ       0.142000
     50 H12          6.0510     3.9760    -4.0780 h1         1 BWQ       0.053700
     51 H13          7.6950     5.2930    -5.0700 hc         1 BWQ       0.057450
     52 H14          7.5570     6.5640    -3.8330 hc         1 BWQ       0.057450
     53 H15          6.1570     7.7370    -5.1940 hc         1 BWQ       0.045950
     54 H16          6.2950     6.4660    -6.4310 hc         1 BWQ       0.045950
     55 H17          3.9420     7.0370    -5.1040 hc         1 BWQ       0.045950
     56 H18          4.3290     5.4200    -5.7530 hc         1 BWQ       0.045950
     57 H19          4.7070     6.4540    -2.9010 hc         1 BWQ       0.057450
     58 H20          3.9460     4.9270    -3.4360 hc         1 BWQ       0.057450
     59 H21          7.5660     4.2950     0.0500 ha         1 BWQ       0.141000
     60 H22          7.0250     2.3180     1.4190 ha         1 BWQ       0.142000
     61 H23          6.4790    -0.3940     1.8540 hc         1 BWQ       0.080200
     62 H24          4.7490     0.1040     2.4700 hc         1 BWQ       0.080200
     63 H25          5.6530    -2.3840     1.0500 h1         1 BWQ       0.090700
     64 H26          2.1270    -3.8530     3.0760 h1         1 BWQ       0.083700
     65 H27          0.6690    -1.8510     3.4800 hc         1 BWQ       0.084700
     66 H28          2.0970    -0.9780     4.0510 hc         1 BWQ       0.084700
     67 H29          2.4430    -2.6900     5.8010 hc         1 BWQ       0.070700
     68 H30          1.0130    -3.5620     5.2290 hc         1 BWQ       0.070700
     69 H31         -1.2290    -2.7090     9.5380 hc         1 BWQ       0.049811
     70 H32         -1.3940    -1.0680    10.1790 hc         1 BWQ       0.049811
     71 H33          0.1990    -1.8350    10.1100 hc         1 BWQ       0.049811
     72 H34         -1.8200    -0.2760     6.7240 hc         1 BWQ       0.049811
     73 H35         -2.1750    -1.9750     7.0640 hc         1 BWQ       0.049811
     74 H36         -2.6470    -0.7250     8.2220 hc         1 BWQ       0.049811
     75 H37         -0.0900     0.7790     7.4160 hc         1 BWQ       0.049811
     76 H38          1.1950     0.0800     8.4110 hc         1 BWQ       0.049811
     77 H39         -0.2620     0.7310     9.1760 hc         1 BWQ       0.049811
     78 H40          3.7010     0.5350    -2.4140 hn         1 BWQ       0.299700
     79 H41          3.9700    -3.2670     4.5790 hn         1 BWQ       0.333500
@<TRIPOS>BOND
     1    13    12 1
     2    13    14 1
     3    12    11 1
     4    14    10 1
     5    11    10 1
     6    10    34 1
     7    34     9 1
     8     9     8 ar
     9     9    15 ar
    10     8     7 ar
    11    15    16 ar
    12     7    31 1
    13     7    17 ar
    14    16    17 ar
    15    31     6 1
    16    17    18 1
    17     1     2 1
    18     2     3 1
    19     2     4 1
    20     6    18 2
    21     6     5 1
    22    18    19 1
    23     5     4 1
    24     5    33 1
    25    19    20 1
    26    33    20 1
    27    33    30 1
    28    20    21 1
    29    38    30 2
    30    30    22 1
    31    21    35 2
    32    21    32 1
    33    22    32 1
    34    22    23 1
    35    23    24 1
    36    24    25 1
    37    29    26 1
    38    37    25 1
    39    37    26 1
    40    27    26 1
    41    25    36 2
    42    26    28 1
    43     1    39 1
    44     1    40 1
    45     1    41 1
    46     2    42 1
    47     3    43 1
    48     3    44 1
    49     3    45 1
    50     4    46 1
    51     4    47 1
    52     5    48 1
    53     8    49 1
    54    10    50 1
    55    11    51 1
    56    11    52 1
    57    12    53 1
    58    12    54 1
    59    13    55 1
    60    13    56 1
    61    14    57 1
    62    14    58 1
    63    15    59 1
    64    16    60 1
    65    19    61 1
    66    19    62 1
    67    20    63 1
    68    22    64 1
    69    23    65 1
    70    23    66 1
    71    24    67 1
    72    24    68 1
    73    27    69 1
    74    27    70 1
    75    27    71 1
    76    28    72 1
    77    28    73 1
    78    28    74 1
    79    29    75 1
    80    29    76 1
    81    29    77 1
    82    31    78 1
    83    32    79 1
@<TRIPOS>SUBSTRUCTURE
     1 BWQ         1 TEMP              0 ****  ****    0 ROOT
