@<TRIPOS>MOLECULE
molecule
   35    34     1     0     0
SMALL
bcc


@<TRIPOS>ATOM
      1 N            0.0000     0.0000     0.0000 nz         1 BWS      -0.804600
      2 CA           1.4690     0.0000     0.0000 c3         1 BWS       0.039500
      3 C            1.9710     0.0000     1.4210 c          1 BWS       0.870600
      4 O            3.2240    -0.3980     1.6900 o          1 BWS      -0.774800
      5 CB           1.9800     1.2490    -0.7210 c3         1 BWS      -0.182400
      6 OXT          1.2460     0.3580     2.3180 o          1 BWS      -0.774800
      7 CAG          1.5750     1.1880    -2.1950 c3         1 BWS      -0.146400
      8 CAH          2.0780     2.4180    -2.9060 c          1 BWS       0.659100
      9 CAK          2.3270     3.7780    -4.9120 c3         1 BWS       0.032700
     10 CAL          3.7750     3.5550    -5.3540 c3         1 BWS      -0.151100
     11 CAO          1.4680     4.0450    -6.1220 c          1 BWS       0.628100
     12 CAR          0.8990     5.3630    -8.0910 c3         1 BWS      -0.005000
     13 CAS          1.4010     6.5930    -8.8010 c          1 BWS       0.882600
     14 NAJ          1.8380     2.5810    -4.2220 ns         1 BWS      -0.561900
     15 OAI          2.6990     3.2600    -2.2940 o          1 BWS      -0.602100
     16 OAT          0.7860     7.0250    -9.9130 o          1 BWS      -0.841300
     17 OAU          2.3590     7.1910    -8.3700 o          1 BWS      -0.841300
     18 H1          -0.3340    -0.3810    -0.8630 hn         1 BWS       0.437467
     19 H2          -0.3340    -0.5570     0.7620 hn         1 BWS       0.437467
     20 H4           1.8300    -0.8850    -0.5110 hx         1 BWS       0.074700
     21 H5           2.8730     1.7770    -0.4090 hc         1 BWS       0.124200
     22 H6           2.3650     0.2720    -0.9840 hc         1 BWS       0.124200
     23 H8           0.4950     1.1430    -2.2710 hc         1 BWS       0.038700
     24 H9           2.0060     0.3050    -2.6510 hc         1 BWS       0.038700
     25 H10          2.2800     4.6260    -4.2410 h1         1 BWS       0.087700
     26 H11          3.9710     3.7890    -6.3930 hc         1 BWS       0.068700
     27 H12          3.7840     4.4100    -4.6880 hc         1 BWS       0.068700
     28 H13          4.2380     2.6630    -4.9500 hc         1 BWS       0.068700
     29 H14         -0.1260     5.5200    -7.7780 h1         1 BWS       0.047200
     30 H15          0.9460     4.5140    -8.7620 h1         1 BWS       0.047200
     31 H16          1.3600     1.8680    -4.7360 hn         1 BWS       0.329500
     32 H17          2.4800     5.7280    -6.6830 hn         1 BWS       0.337500
     33 OAP          0.5400     3.3100    -6.3810 o          1 BWS      -0.658100
     34 HN3         -0.3340     0.9370     0.1110 hn         1 BWS       0.437467
     35 NAQ          1.7330     5.1030    -6.9150 ns         1 BWS      -0.538900
@<TRIPOS>BOND
     1     4     3 1
     2     6     3 1
     3     3     2 1
     4     2     1 1
     5     2     5 1
     6     7     5 1
     7     7     8 1
     8    14     8 1
     9    14     9 1
    10    33    11 2
    11    10     9 1
    12     8    15 2
    13     9    11 1
    14    11    35 1
    15    35    12 1
    16    12    13 1
    17    13    16 1
    18    13    17 1
    19     1    18 1
    20     1    19 1
    21     2    20 1
    22     5    21 1
    23     5    22 1
    24     7    23 1
    25     7    24 1
    26     9    25 1
    27    10    26 1
    28    10    27 1
    29    10    28 1
    30    12    29 1
    31    12    30 1
    32    14    31 1
    33    35    32 1
    34    34     1 1
@<TRIPOS>SUBSTRUCTURE
     1 BWS         1 TEMP              0 ****  ****    0 ROOT
