@<TRIPOS>MOLECULE
molecule
   41    43     1     0     0
SMALL
bcc


@<TRIPOS>ATOM
      1 F            0.0000     0.0000     0.0000 f          1 BWW      -0.119900
      2 C13          1.3510     0.0000     0.0000 ca         1 BWW       0.129900
      3 C12          2.0410     0.0000     1.1980 ca         1 BWW      -0.121000
      4 C14          2.0410    -0.0050    -1.2010 ca         1 BWW      -0.152000
      5 C15          3.4240    -0.0050    -1.2100 ca         1 BWW      -0.175000
      6 C16          4.1260    -0.0010    -0.0160 ca         1 BWW       0.099100
      7 O4           5.4850    -0.0010    -0.0260 oh         1 BWW      -0.512100
      8 C11          3.4330    -0.0000     1.1980 cp         1 BWW      -0.034000
      9 C7           4.1780    -0.0000     2.4810 cp         1 BWW      -0.057000
     10 C6           3.8560     0.9190     3.4770 ca         1 BWW       0.000000
     11 C8           5.1990    -0.9240     2.6960 ca         1 BWW      -0.047000
     12 C9           5.8880    -0.9190     3.8920 ca         1 BWW      -0.165000
     13 C10          5.5680    -0.0010     4.8750 ca         1 BWW      -0.031000
     14 C5           4.5520     0.9150     4.6680 ca         1 BWW      -0.307500
     15 S            4.1450     2.0770     5.9290 sy         1 BWW       1.423200
     16 O2           5.2940     2.1890     6.7570 o          1 BWW      -0.647300
     17 O3           3.5480     3.1880     5.2730 o          1 BWW      -0.647300
     18 N            2.9620     1.3940     6.8630 nu         1 BWW      -0.769500
     19 C4           1.7100     1.1310     6.3170 ca         1 BWW       0.087600
     20 C3           0.8200     2.1790     6.0850 ca         1 BWW      -0.155000
     21 C2          -0.4110     1.9330     5.5500 ca         1 BWW      -0.081000
     22 C17          1.3520    -0.1740     6.0000 ca         1 BWW      -0.216000
     23 C18          0.1070    -0.4350     5.4570 ca         1 BWW       0.125100
     24 O5          -0.2480    -1.7060     5.1450 oh         1 BWW      -0.467100
     25 C1          -0.7890     0.6240     5.2300 ca         1 BWW      -0.100600
     26 C           -2.1150     0.3590     4.6550 c          1 BWW       0.876200
     27 O1          -2.9700     1.3770     4.4320 o          1 BWW      -0.822800
     28 O           -2.4410    -0.7800     4.3780 o          1 BWW      -0.822800
     29 H1           1.4980     0.0000     2.1360 ha         1 BWW       0.182000
     30 H2           1.4960    -0.0080    -2.1370 ha         1 BWW       0.141000
     31 H3           3.9580    -0.0090    -2.1520 ha         1 BWW       0.131000
     32 H4           5.7950     0.6670    -0.6140 ho         1 BWW       0.416000
     33 H5           3.0600     1.6370     3.3160 ha         1 BWW       0.165000
     34 H6           5.4510    -1.6440     1.9270 ha         1 BWW       0.141000
     35 H7           6.6840    -1.6350     4.0600 ha         1 BWW       0.127000
     36 H8           6.1120    -0.0010     5.8120 ha         1 BWW       0.142000
     37 H9           3.1380     1.1950     7.8280 hn         1 BWW       0.451800
     38 H10          1.1080     3.1940     6.3300 ha         1 BWW       0.132000
     39 H11         -1.0970     2.7520     5.3740 ha         1 BWW       0.167000
     40 H12          2.0200    -0.9920     6.2410 ha         1 BWW       0.118000
     41 H13         -0.1470    -2.2560     5.9040 ho         1 BWW       0.395000
@<TRIPOS>BOND
     1    16    15 2
     2     1     2 1
     3     4     2 ar
     4     4     5 ar
     5    18    15 1
     6    18    19 1
     7     2     3 ar
     8    20    19 ar
     9    20    21 ar
    10     5     6 ar
    11    15    17 2
    12    15    14 1
    13     3     8 ar
    14    19    22 ar
    15    21    25 ar
    16     6     8 ar
    17     6     7 1
    18    10    14 ar
    19    10     9 ar
    20     8     9 1
    21    14    13 ar
    22     9    11 ar
    23    25    23 ar
    24    25    26 1
    25    22    23 ar
    26    28    26 1
    27    23    24 1
    28    26    27 1
    29    13    12 ar
    30    11    12 ar
    31     3    29 1
    32     4    30 1
    33     5    31 1
    34     7    32 1
    35    10    33 1
    36    11    34 1
    37    12    35 1
    38    13    36 1
    39    18    37 1
    40    20    38 1
    41    21    39 1
    42    22    40 1
    43    24    41 1
@<TRIPOS>SUBSTRUCTURE
     1 BWW         1 TEMP              0 ****  ****    0 ROOT
