@<TRIPOS>MOLECULE
BWW
   41    43     1     0     0
SMALL
bcc


@<TRIPOS>ATOM
      1 F            0.0000     0.0000     0.0000 f          1 BWW      -0.113900
      2 C13          1.3510     0.0000     0.0000 ca         1 BWW       0.101900
      3 C12          2.0410     0.0000     1.1980 ca         1 BWW      -0.084000
      4 C14          2.0410    -0.0050    -1.2010 ca         1 BWW      -0.113000
      5 C15          3.4240    -0.0050    -1.2100 ca         1 BWW      -0.161000
      6 C16          4.1260    -0.0010    -0.0160 ca         1 BWW       0.120100
      7 O4           5.4850    -0.0010    -0.0260 oh         1 BWW      -0.490100
      8 C11          3.4330    -0.0000     1.1980 cp         1 BWW      -0.039000
      9 C7           4.1780    -0.0000     2.4810 cp         1 BWW      -0.059000
     10 C6           3.8560     0.9190     3.4770 ca         1 BWW       0.029000
     11 C8           5.1990    -0.9240     2.6960 ca         1 BWW      -0.028000
     12 C9           5.8880    -0.9190     3.8920 ca         1 BWW      -0.147000
     13 C10          5.5680    -0.0010     4.8750 ca         1 BWW      -0.002000
     14 C5           4.5520     0.9150     4.6680 ca         1 BWW      -0.151500
     15 S            4.1450     2.0770     5.9290 sy         1 BWW       1.029200
     16 O2           5.2940     2.1890     6.7570 o          1 BWW      -0.599300
     17 O3           3.5480     3.1880     5.2730 o          1 BWW      -0.599300
     18 N            2.9620     1.3940     6.8630 nu         1 BWW      -0.392500
     19 C4           1.7100     1.1310     6.3170 ca         1 BWW       0.012600
     20 C3           0.8200     2.1790     6.0850 ca         1 BWW      -0.145000
     21 C2          -0.4110     1.9330     5.5500 ca         1 BWW      -0.044000
     22 C17          1.3520    -0.1740     6.0000 ca         1 BWW      -0.222000
     23 C18          0.1070    -0.4350     5.4570 ca         1 BWW       0.150100
     24 O5          -0.2480    -1.7060     5.1450 oh         1 BWW      -0.443100
     25 C1          -0.7890     0.6240     5.2300 ca         1 BWW      -0.115600
     26 C           -2.1150     0.3590     4.6550 c          1 BWW       0.968200
     27 O1          -2.9700     1.3770     4.4320 o          1 BWW      -0.873300
     28 O           -2.4410    -0.7800     4.3780 o          1 BWW      -0.873300
     29 H1           1.4980     0.0000     2.1360 ha         1 BWW       0.151000
     30 H2           1.4960    -0.0080    -2.1370 ha         1 BWW       0.114000
     31 H3           3.9580    -0.0090    -2.1520 ha         1 BWW       0.106000
     32 H4           5.7950     0.6670    -0.6140 ho         1 BWW       0.398000
     33 H5           3.0600     1.6370     3.3160 ha         1 BWW       0.138000
     34 H6           5.4510    -1.6440     1.9270 ha         1 BWW       0.110000
     35 H7           6.6840    -1.6350     4.0600 ha         1 BWW       0.101000
     36 H8           6.1120    -0.0010     5.8120 ha         1 BWW       0.116000
     37 H9           3.1380     1.1950     7.8280 hn         1 BWW       0.333800
     38 H10          1.1080     3.1940     6.3300 ha         1 BWW       0.111000
     39 H11         -1.0970     2.7520     5.3740 ha         1 BWW       0.135000
     40 H12          2.0200    -0.9920     6.2410 ha         1 BWW       0.098000
     41 H13         -0.1470    -2.2560     5.9040 ho         1 BWW       0.373000
@<TRIPOS>BOND
     1     1     2 1   
     2     2     3 ar  
     3     2     4 ar  
     4     3     8 ar  
     5     3    29 1   
     6     4     5 ar  
     7     4    30 1   
     8     5     6 ar  
     9     5    31 1   
    10     6     7 1   
    11     6     8 ar  
    12     7    32 1   
    13     8     9 1   
    14     9    10 ar  
    15     9    11 ar  
    16    10    14 ar  
    17    10    33 1   
    18    11    12 ar  
    19    11    34 1   
    20    12    13 ar  
    21    12    35 1   
    22    13    14 ar  
    23    13    36 1   
    24    14    15 1   
    25    15    16 2   
    26    15    17 2   
    27    15    18 1   
    28    18    19 1   
    29    18    37 1   
    30    19    20 ar  
    31    19    22 ar  
    32    20    21 ar  
    33    20    38 1   
    34    21    25 ar  
    35    21    39 1   
    36    22    23 ar  
    37    22    40 1   
    38    23    24 1   
    39    23    25 ar  
    40    24    41 1   
    41    25    26 1   
    42    26    27 1   
    43    26    28 1   
@<TRIPOS>SUBSTRUCTURE
     1 BWW         1 TEMP              0 ****  ****    0 ROOT
