@<TRIPOS>MOLECULE
BWY
   68    72     1     0     0
SMALL
bcc


@<TRIPOS>ATOM
      1 C7           0.0000     0.0000     0.0000 cc         1 BWY       0.598900
      2 N8           1.3080     0.0000     0.0000 nd         1 BWY      -0.694800
      3 C9           0.5140    -0.0000     3.5620 cc         1 BWY       0.241300
      4 C10         -0.6300    -0.0000     4.3080 cd         1 BWY      -0.349600
      5 C1           3.8210    -1.2490     1.3350 c3         1 BWY      -0.005600
      6 C12          1.1270    -0.0080     5.6320 cd         1 BWY       0.279000
      7 C14          1.8640    -0.0270     6.9130 ca         1 BWY      -0.167500
      8 C15          2.9690     0.7770     7.1510 ca         1 BWY       0.022000
      9 C16          3.5860     0.7340     8.3870 ca         1 BWY      -0.014500
     10 C17          3.1050    -0.1020     9.3800 ca         1 BWY      -0.001000
     11 C18          2.0140    -0.9180     9.1470 ca         1 BWY      -0.142000
     12 C19          1.3950    -0.9020     7.9110 ca         1 BWY       0.154100
     13 C21         -0.9640    -1.2990     7.5610 c3         1 BWY       0.219400
     14 C22         -1.0700     0.0350     6.8190 c3         1 BWY      -0.092700
     15 C25          4.2600     3.2760     9.3460 c3         1 BWY       0.086600
     16 C26          5.3580     4.3220     9.5560 c3         1 BWY      -0.011400
     17 C27          4.7260     5.6270    10.0440 c3         1 BWY       0.137300
     18 C29          2.6650     5.1350     8.8690 c3         1 BWY       0.137300
     19 C3           3.8210     1.2490     1.3350 c3         1 BWY      -0.005600
     20 C30          3.2360     3.8150     8.3450 c3         1 BWY      -0.011400
     21 C32          4.3910     8.4030     9.6010 c3         1 BWY      -0.015433
     22 C33          2.4460     7.3140    10.7300 c3         1 BWY      -0.015433
     23 C34          2.3030     7.9320     8.3130 c3         1 BWY      -0.015433
     24 C5           0.5870    -0.0000     2.0850 cd         1 BWY       0.273500
     25 N11         -0.2490     0.0060     5.6080 na         1 BWY       0.291100
     26 N13          1.5670     0.0050     4.4090 nc         1 BWY      -0.580000
     27 N28          3.7550     6.1030     9.0510 n3         1 BWY      -0.524600
     28 N4           1.7180     0.0000     1.3430 na         1 BWY       0.383600
     29 N6          -0.4380     0.0000     1.2570 nc         1 BWY      -0.720000
     30 O20          0.3900    -1.7510     7.5980 os         1 BWY      -0.330900
     31 S23          4.9940     1.7480     8.7000 sx         1 BWY       0.017400
     32 H1          -0.6270     0.0000    -0.8830 h5         1 BWY       0.018100
     33 H2           3.0810    -0.0050     2.9230 h1         1 BWY       0.090700
     34 H3          -1.6310    -0.1830     3.9380 h4         1 BWY       0.170000
     35 H4           4.8220    -1.2790     1.7500 hc         1 BWY       0.015200
     36 H5           3.2780    -2.1360     1.6390 hc         1 BWY       0.015200
     37 H6           3.8790    -1.2150     0.2540 hc         1 BWY       0.015200
     38 H7           3.3450     1.4310     6.3750 ha         1 BWY       0.145000
     39 H8           3.5970    -0.1280    10.3450 ha         1 BWY       0.107000
     40 H9           1.6450    -1.5690     9.9300 ha         1 BWY       0.119000
     41 H10         -1.2890    -1.1390     8.5820 h1         1 BWY       0.025700
     42 H11         -1.5450    -2.0310     7.0140 h1         1 BWY       0.025700
     43 H12         -0.7240     0.8330     7.4660 h1         1 BWY       0.045200
     44 H13         -2.1030     0.2110     6.5460 h1         1 BWY       0.045200
     45 H14          3.7690     3.0750    10.2910 h1         1 BWY       0.062700
     46 H15          5.8720     4.4980     8.6190 hc         1 BWY       0.033200
     47 H16          6.0610     3.9630    10.2980 hc         1 BWY       0.033200
     48 H17          5.5000     6.3740    10.1760 h1         1 BWY       0.017200
     49 H18          4.2220     5.4530    10.9860 h1         1 BWY       0.017200
     50 H19          2.1740     4.9630     9.8190 h1         1 BWY       0.017200
     51 H20          1.9520     5.5280     8.1530 h1         1 BWY       0.017200
     52 H21          4.7960     1.3150     1.8040 hc         1 BWY       0.015200
     53 H22          3.2430     2.1320     1.5780 hc         1 BWY       0.015200
     54 H23          3.9410     1.1800     0.2610 hc         1 BWY       0.015200
     55 H24          2.4330     3.0970     8.2280 hc         1 BWY       0.033200
     56 H25          3.7190     3.9850     7.3910 hc         1 BWY       0.033200
     57 H26          4.0180     9.4190     9.5550 hc         1 BWY       0.012589
     58 H27          4.8310     8.2230    10.5750 hc         1 BWY       0.012589
     59 H28          5.1420     8.2590     8.8340 hc         1 BWY       0.012589
     60 H29          1.6160     6.6310    10.5970 hc         1 BWY       0.012589
     61 H30          3.0910     6.9500    11.5200 hc         1 BWY       0.012589
     62 H31          2.0680     8.2940    10.9950 hc         1 BWY       0.012589
     63 H32          2.7390     7.7090     7.3470 hc         1 BWY       0.012589
     64 H33          2.0920     8.9920     8.3780 hc         1 BWY       0.012589
     65 H34          1.3830     7.3730     8.4310 hc         1 BWY       0.012589
     66 C2           3.0960    -0.0000     1.8400 c3         1 BWY      -0.068000
     67 C31          3.2290     7.4250     9.4200 c3         1 BWY       0.112200
     68 O24          5.5110     1.9850     7.3980 o          1 BWY      -0.447200
@<TRIPOS>BOND
     1     1     2 2   
     2     1    29 1   
     3     1    32 1   
     4     2    28 1   
     5     3     4 2   
     6     3    24 1   
     7     3    26 1   
     8     4    25 1   
     9     4    34 1   
    10     5    35 1   
    11     5    36 1   
    12     5    37 1   
    13     5    66 1   
    14     6     7 1   
    15     6    25 1   
    16     6    26 2   
    17     7     8 ar  
    18     7    12 ar  
    19     8     9 ar  
    20     8    38 1   
    21     9    10 ar  
    22     9    31 1   
    23    10    11 ar  
    24    10    39 1   
    25    11    12 ar  
    26    11    40 1   
    27    12    30 1   
    28    13    14 1   
    29    13    30 1   
    30    13    41 1   
    31    13    42 1   
    32    14    25 1   
    33    14    43 1   
    34    14    44 1   
    35    15    16 1   
    36    15    20 1   
    37    15    31 1   
    38    15    45 1   
    39    16    17 1   
    40    16    46 1   
    41    16    47 1   
    42    17    27 1   
    43    17    48 1   
    44    17    49 1   
    45    18    20 1   
    46    18    27 1   
    47    18    50 1   
    48    18    51 1   
    49    19    52 1   
    50    19    53 1   
    51    19    54 1   
    52    19    66 1   
    53    20    55 1   
    54    20    56 1   
    55    21    57 1   
    56    21    58 1   
    57    21    59 1   
    58    21    67 1   
    59    22    60 1   
    60    22    61 1   
    61    22    62 1   
    62    22    67 1   
    63    23    63 1   
    64    23    64 1   
    65    23    65 1   
    66    23    67 1   
    67    24    28 1   
    68    24    29 2   
    69    27    67 1   
    70    28    66 1   
    71    31    68 2   
    72    33    66 1   
@<TRIPOS>SUBSTRUCTURE
     1 BWY         1 TEMP              0 ****  ****    0 ROOT
