@<TRIPOS>MOLECULE
molecule
   68    72     1     0     0
SMALL
bcc


@<TRIPOS>ATOM
      1 C7           0.0000     0.0000     0.0000 cc         1 BWY       0.560900
      2 N8           1.3080     0.0000     0.0000 nd         1 BWY      -0.552800
      3 C9           0.5140    -0.0000     3.5620 cd         1 BWY       0.267300
      4 C10         -0.6300    -0.0000     4.3080 cc         1 BWY      -0.189600
      5 C1           3.8210    -1.2490     1.3350 c3         1 BWY      -0.102600
      6 C12          1.1270    -0.0080     5.6320 cc         1 BWY       0.474000
      7 C14          1.8640    -0.0270     6.9130 ca         1 BWY      -0.163500
      8 C15          2.9690     0.7770     7.1510 ca         1 BWY      -0.004000
      9 C16          3.5860     0.7340     8.3870 ca         1 BWY      -0.128500
     10 C17          3.1050    -0.1020     9.3800 ca         1 BWY      -0.041000
     11 C18          2.0140    -0.9180     9.1470 ca         1 BWY      -0.161000
     12 C19          1.3950    -0.9020     7.9110 ca         1 BWY       0.156100
     13 C21         -0.9640    -1.2990     7.5610 c3         1 BWY       0.142400
     14 C22         -1.0700     0.0350     6.8190 c3         1 BWY      -0.001700
     15 C25          4.2600     3.2760     9.3460 c3         1 BWY      -0.074400
     16 C26          5.3580     4.3220     9.5560 c3         1 BWY      -0.059400
     17 C27          4.7260     5.6270    10.0440 c3         1 BWY       0.164300
     18 C29          2.6650     5.1350     8.8690 c3         1 BWY       0.164300
     19 C3           3.8210     1.2490     1.3350 c3         1 BWY      -0.102600
     20 C30          3.2360     3.8150     8.3450 c3         1 BWY      -0.059400
     21 C32          4.3910     8.4030     9.6010 c3         1 BWY      -0.097100
     22 C33          2.4460     7.3140    10.7300 c3         1 BWY      -0.097100
     23 C34          2.3030     7.9320     8.3130 c3         1 BWY      -0.097100
     24 C5           0.5870    -0.0000     2.0850 cd         1 BWY       0.444500
     25 N11         -0.2490     0.0060     5.6080 na         1 BWY      -0.187900
     26 N13          1.5670     0.0050     4.4090 nd         1 BWY      -0.671000
     27 N28          3.7550     6.1030     9.0510 n3         1 BWY      -0.714600
     28 N4           1.7180     0.0000     1.3430 na         1 BWY      -0.037400
     29 N6          -0.4380     0.0000     1.2570 nc         1 BWY      -0.780000
     30 O20          0.3900    -1.7510     7.5980 os         1 BWY      -0.346900
     31 S23          4.9940     1.7480     8.7000 sx         1 BWY       0.352400
     32 H1          -0.6270     0.0000    -0.8830 h5         1 BWY       0.073100
     33 H2           3.0810    -0.0050     2.9230 h1         1 BWY       0.113700
     34 H3          -1.6310    -0.1830     3.9380 h4         1 BWY       0.197000
     35 H4           4.8220    -1.2790     1.7500 hc         1 BWY       0.047033
     36 H5           3.2780    -2.1360     1.6390 hc         1 BWY       0.047033
     37 H6           3.8790    -1.2150     0.2540 hc         1 BWY       0.047033
     38 H7           3.3450     1.4310     6.3750 ha         1 BWY       0.175000
     39 H8           3.5970    -0.1280    10.3450 ha         1 BWY       0.133000
     40 H9           1.6450    -1.5690     9.9300 ha         1 BWY       0.146000
     41 H10         -1.2890    -1.1390     8.5820 h1         1 BWY       0.068200
     42 H11         -1.5450    -2.0310     7.0140 h1         1 BWY       0.068200
     43 H12         -0.7240     0.8330     7.4660 h1         1 BWY       0.073200
     44 H13         -2.1030     0.2110     6.5460 h1         1 BWY       0.073200
     45 H14          3.7690     3.0750    10.2910 h1         1 BWY       0.078700
     46 H15          5.8720     4.4980     8.6190 hc         1 BWY       0.056200
     47 H16          6.0610     3.9630    10.2980 hc         1 BWY       0.056200
     48 H17          5.5000     6.3740    10.1760 h1         1 BWY       0.036700
     49 H18          4.2220     5.4530    10.9860 h1         1 BWY       0.036700
     50 H19          2.1740     4.9630     9.8190 h1         1 BWY       0.036700
     51 H20          1.9520     5.5280     8.1530 h1         1 BWY       0.036700
     52 H21          4.7960     1.3150     1.8040 hc         1 BWY       0.047033
     53 H22          3.2430     2.1320     1.5780 hc         1 BWY       0.047033
     54 H23          3.9410     1.1800     0.2610 hc         1 BWY       0.047033
     55 H24          2.4330     3.0970     8.2280 hc         1 BWY       0.056200
     56 H25          3.7190     3.9850     7.3910 hc         1 BWY       0.056200
     57 H26          4.0180     9.4190     9.5550 hc         1 BWY       0.039811
     58 H27          4.8310     8.2230    10.5750 hc         1 BWY       0.039811
     59 H28          5.1420     8.2590     8.8340 hc         1 BWY       0.039811
     60 H29          1.6160     6.6310    10.5970 hc         1 BWY       0.039811
     61 H30          3.0910     6.9500    11.5200 hc         1 BWY       0.039811
     62 H31          2.0680     8.2940    10.9950 hc         1 BWY       0.039811
     63 H32          2.7390     7.7090     7.3470 hc         1 BWY       0.039811
     64 H33          2.0920     8.9920     8.3780 hc         1 BWY       0.039811
     65 H34          1.3830     7.3730     8.4310 hc         1 BWY       0.039811
     66 C2           3.0960    -0.0000     1.8400 c3         1 BWY       0.062000
     67 C31          3.2290     7.4250     9.4200 c3         1 BWY       0.172200
     68 O24          5.5110     1.9850     7.3980 o          1 BWY      -0.504200
@<TRIPOS>BOND
     1    21    67 1
     2    23    67 1
     3    67    22 1
     4    67    27 1
     5    18    27 1
     6    18    20 1
     7    27    17 1
     8     5    66 1
     9    20    15 1
    10    17    16 1
    11    66    28 1
    12    66    19 1
    13    15    16 1
    14    15    31 1
    15     2    28 1
    16     2     1 2
    17    28    24 1
    18    68    31 2
    19     1    29 1
    20    24    29 2
    21    24     3 1
    22    31     9 1
    23    26     3 1
    24    26     6 2
    25     3     4 2
    26     8     9 ar
    27     8     7 ar
    28     9    10 ar
    29     6     7 1
    30     6    25 1
    31     7    12 ar
    32    10    11 ar
    33     4    25 1
    34    12    11 ar
    35    12    30 1
    36    25    14 1
    37    30    13 1
    38    14    13 1
    39     1    32 1
    40    66    33 1
    41     4    34 1
    42     5    35 1
    43     5    36 1
    44     5    37 1
    45     8    38 1
    46    10    39 1
    47    11    40 1
    48    13    41 1
    49    13    42 1
    50    14    43 1
    51    14    44 1
    52    15    45 1
    53    16    46 1
    54    16    47 1
    55    17    48 1
    56    17    49 1
    57    18    50 1
    58    18    51 1
    59    19    52 1
    60    19    53 1
    61    19    54 1
    62    20    55 1
    63    20    56 1
    64    21    57 1
    65    21    58 1
    66    21    59 1
    67    22    60 1
    68    22    61 1
    69    22    62 1
    70    23    63 1
    71    23    64 1
    72    23    65 1
@<TRIPOS>SUBSTRUCTURE
     1 BWY         1 TEMP              0 ****  ****    0 ROOT
