@<TRIPOS>MOLECULE
molecule
   51    53     1     0     0
SMALL
bcc


@<TRIPOS>ATOM
      1 C01          0.0000     0.0000     0.0000 c3         1 BX1       0.123700
      2 O02          1.4280     0.0000     0.0000 os         1 BX1      -0.323400
      3 C03          2.0460     0.0000     1.2120 ca         1 BX1       0.151600
      4 C04          1.2910     0.0000     2.3720 ca         1 BX1      -0.234000
      5 C05          1.9250    -0.0010     3.6140 cp         1 BX1      -0.052500
      6 C06          1.1180    -0.0010     4.8580 cp         1 BX1       0.293500
      7 C07         -0.2670    -0.1050     4.7890 ca         1 BX1       0.335900
      8 N08         -0.9890    -0.1050     5.8970 nb         1 BX1      -0.747000
      9 C09         -0.3960    -0.0060     7.0770 ca         1 BX1       0.597900
     10 N10         -1.1590    -0.0080     8.2410 nv         1 BX1      -0.999500
     11 C11          1.0000     0.0980     7.1520 ca         1 BX1       0.454900
     12 N12          1.6260     0.2030     8.3910 nh         1 BX1      -0.733300
     13 C13          2.5210    -0.9380     8.6250 c3         1 BX1       0.163300
     14 C14          3.0780    -0.8670    10.0490 c3         1 BX1      -0.052900
     15 C15          3.8390     0.4490    10.2290 c3         1 BX1      -0.175700
     16 C16          5.0070     0.4900     9.2780 c          1 BX1       0.892600
     17 O17          5.2110    -0.4380     8.5320 o          1 BX1      -0.851300
     18 O18          5.8220     1.5570     9.2590 o          1 BX1      -0.851300
     19 C19          2.8970     1.6200     9.9320 c3         1 BX1      -0.052900
     20 C20          2.3450     1.4760     8.5110 c3         1 BX1       0.163300
     21 N21          1.7220     0.0940     6.0430 nb         1 BX1      -0.634000
     22 C22          3.3170    -0.0020     3.6850 ca         1 BX1      -0.234000
     23 C23          4.0680    -0.0020     2.5230 ca         1 BX1       0.151600
     24 O24          5.4260    -0.0030     2.5920 os         1 BX1      -0.323400
     25 C25          6.0100    -0.0040     3.8970 c3         1 BX1       0.123700
     26 C26          3.4350    -0.0070     1.2840 ca         1 BX1       0.034100
     27 O27          4.1750    -0.0120     0.1430 os         1 BX1      -0.327900
     28 C28          4.5340     1.2580    -0.4040 c3         1 BX1       0.135700
     29 H011        -0.3610    -0.8920     0.4970 h1         1 BX1       0.045867
     30 H012        -0.3610     0.8770     0.5240 h1         1 BX1       0.045867
     31 H013        -0.3610     0.0150    -1.0210 h1         1 BX1       0.045867
     32 H04          0.2100    -0.0460     2.3150 ha         1 BX1       0.159000
     33 H22          3.8100    -0.0030     4.6490 ha         1 BX1       0.159000
     34 H07         -0.7550    -0.1860     3.8250 h4         1 BX1       0.018100
     35 H101        -2.0960    -0.3570     8.2250 hn         1 BX1       0.443300
     36 H102        -0.7640     0.3250     9.0990 hn         1 BX1       0.443300
     37 H131         3.3400    -0.9030     7.9170 h1         1 BX1       0.053450
     38 H132         1.9680    -1.8610     8.5010 h1         1 BX1       0.053450
     39 H201         1.6660     2.2940     8.3050 h1         1 BX1       0.053450
     40 H202         3.1650     1.4940     7.8030 h1         1 BX1       0.053450
     41 H141         2.2610    -0.9110    10.7590 hc         1 BX1       0.032200
     42 H142         3.7520    -1.6990    10.2150 hc         1 BX1       0.032200
     43 H15          4.1940     0.5230    11.2500 hc         1 BX1       0.042700
     44 H191         2.0770     1.6110    10.6390 hc         1 BX1       0.032200
     45 H192         3.4430     2.5520    10.0140 hc         1 BX1       0.032200
     46 H251         7.0900    -0.0100     3.8090 h1         1 BX1       0.045867
     47 H252         5.6970     0.8840     4.4330 h1         1 BX1       0.045867
     48 H253         5.6860    -0.8850     4.4370 h1         1 BX1       0.045867
     49 H281         5.6130     1.3520    -0.4210 h1         1 BX1       0.029033
     50 H282         4.1480     1.3390    -1.4130 h1         1 BX1       0.029033
     51 H283         4.1130     2.0470     0.2080 h1         1 BX1       0.029033
@<TRIPOS>BOND
     1     1     2 1
     2     2     3 1
     3     3     4 ar
     4     3    26 ar
     5     4     5 ar
     6     5     6 1
     7     5    22 ar
     8     6     7 ar
     9     6    21 ar
    10     7     8 ar
    11     8     9 ar
    12     9    10 1
    13     9    11 ar
    14    11    12 1
    15    11    21 ar
    16    12    13 1
    17    12    20 1
    18    13    14 1
    19    14    15 1
    20    15    16 1
    21    15    19 1
    22    16    17 1
    23    16    18 1
    24    19    20 1
    25    22    23 ar
    26    23    24 1
    27    23    26 ar
    28    24    25 1
    29    26    27 1
    30    27    28 1
    31     1    29 1
    32     1    30 1
    33     1    31 1
    34     4    32 1
    35    22    33 1
    36     7    34 1
    37    10    35 1
    38    10    36 1
    39    13    37 1
    40    13    38 1
    41    20    39 1
    42    20    40 1
    43    14    41 1
    44    14    42 1
    45    15    43 1
    46    19    44 1
    47    19    45 1
    48    25    46 1
    49    25    47 1
    50    25    48 1
    51    28    49 1
    52    28    50 1
    53    28    51 1
@<TRIPOS>SUBSTRUCTURE
     1 BX1         1 TEMP              0 ****  ****    0 ROOT
