@<TRIPOS>MOLECULE
molecule
   55    58     1     0     0
SMALL
bcc


@<TRIPOS>ATOM
      1 C1           0.0000     0.0000     0.0000 c3         1 BX2      -0.084100
      2 N1           1.6300     0.9390     2.2550 nb         1 BX2      -0.668000
      3 O1           3.6460    -2.0670     5.9880 o          1 BX2      -0.509500
      4 C2           1.5300     0.0000     0.0000 c3         1 BX2      -0.131200
      5 N2           3.6370    -3.9430     4.6590 n          1 BX2      -0.427300
      6 C3           2.0330     0.0000     1.4210 ca         1 BX2       0.455100
      7 N3           4.3590    -3.1690     2.7020 n2         1 BX2      -0.524900
      8 C4           2.9100    -0.9830     1.8350 ca         1 BX2      -0.244300
      9 N4           3.8630    -5.4690     2.7930 nz         1 BX2      -0.724600
     10 C5           3.3670    -0.9740     3.1440 ca         1 BX2      -0.060300
     11 N5           6.8120     2.0440     8.0480 nb         1 BX2      -0.725000
     12 C6           2.9220     0.0290     3.9910 ca         1 BX2      -0.244300
     13 N6           9.0000     2.2360     7.3420 nb         1 BX2      -0.725000
     14 C7           2.0440     0.9790     3.5060 ca         1 BX2       0.455100
     15 C8           1.5520     2.0740     4.4180 c3         1 BX2      -0.131200
     16 C9           1.8470     3.4350     3.7840 c3         1 BX2      -0.084100
     17 C10          4.3250    -2.0290     3.6340 c3         1 BX2       0.155800
     18 C11          3.8290    -2.6350     4.9320 c          1 BX2       0.708500
     19 C12          3.9590    -4.2170     3.3530 c2         1 BX2       0.455800
     20 C14          5.7040    -1.4490     3.8110 ca         1 BX2      -0.097300
     21 C15          6.7110    -1.7780     2.9200 ca         1 BX2      -0.112000
     22 C16          7.9790    -1.2490     3.0770 ca         1 BX2      -0.114000
     23 C17          8.2470    -0.3880     4.1230 ca         1 BX2      -0.096000
     24 C18          7.2370    -0.0540     5.0220 cp         1 BX2      -0.008000
     25 C19          5.9580    -0.5850     4.8560 ca         1 BX2      -0.101000
     26 C20          7.5180     0.8700     6.1480 cp         1 BX2      -0.310600
     27 C21          6.5180     1.2180     7.0590 ca         1 BX2       0.472700
     28 C22          8.0270     2.5380     8.1800 ca         1 BX2       0.694900
     29 C23          8.7910     1.4160     6.3270 ca         1 BX2       0.472700
     30 H1          -0.3610    -0.7120     0.7320 hc         1 BX2       0.044867
     31 H1A         -0.3610     0.9900     0.2500 hc         1 BX2       0.044867
     32 H1B         -0.3610    -0.2780    -0.9830 hc         1 BX2       0.044867
     33 H2           1.8910     0.8840    -0.5110 hc         1 BX2       0.059950
     34 H2A          1.8910    -0.8840    -0.5110 hc         1 BX2       0.059950
     35 H4           3.2370    -1.7520     1.1450 ha         1 BX2       0.148000
     36 HN4          4.1650    -5.4320     1.8400 hn         1 BX2       0.480800
     37 HN4A         2.9130    -5.7790     2.8300 hn         1 BX2       0.480800
     38 H6           3.2580     0.0670     5.0200 ha         1 BX2       0.148000
     39 H8           2.0580     2.0030     5.3730 hc         1 BX2       0.059950
     40 H8A          0.4840     1.9680     4.5660 hc         1 BX2       0.059950
     41 H9           1.1290     3.6310     2.9970 hc         1 BX2       0.044867
     42 H9A          2.8470     3.4310     3.3680 hc         1 BX2       0.044867
     43 H9B          1.7740     4.2080     4.5400 hc         1 BX2       0.044867
     44 H13          2.2740    -5.4220     5.2340 h1         1 BX2       0.071367
     45 H13A         3.9320    -5.6740     5.7970 h1         1 BX2       0.071367
     46 H13B         2.9170    -4.4420     6.5590 h1         1 BX2       0.071367
     47 H15          6.5050    -2.4530     2.0980 ha         1 BX2       0.135000
     48 H16          8.7640    -1.5090     2.3770 ha         1 BX2       0.148000
     49 H17          9.2410     0.0240     4.2450 ha         1 BX2       0.150000
     50 H19          5.1690    -0.3290     5.5530 ha         1 BX2       0.154000
     51 H21          5.5180     0.8160     6.9570 h4         1 BX2       0.031600
     52 H22          8.2340     3.2130     9.0020 h5         1 BX2       0.072100
     53 H23          9.5950     1.1730     5.6430 h4         1 BX2       0.031600
     54 H43          4.4530    -6.1040     3.2940 hn         1 BX2       0.480800
     55 C13          3.1590    -4.9350     5.6250 c3         1 BX2       0.072300
@<TRIPOS>BOND
     1     4     1 1
     2     1    30 1
     3     1    31 1
     4     1    32 1
     5     6     2 ar
     6     2    14 ar
     7    18     3 2
     8     4     6 1
     9     4    33 1
    10     4    34 1
    11    19     5 1
    12     5    55 1
    13     5    18 1
    14     8     6 ar
    15     7    19 2
    16     7    17 1
    17     8    10 ar
    18     8    35 1
    19     9    19 1
    20     9    36 1
    21     9    37 1
    22    17    10 1
    23    10    12 ar
    24    11    27 ar
    25    11    28 ar
    26    12    14 ar
    27    12    38 1
    28    28    13 ar
    29    13    29 ar
    30    14    15 1
    31    15    16 1
    32    15    39 1
    33    15    40 1
    34    16    41 1
    35    16    42 1
    36    16    43 1
    37    20    17 1
    38    17    18 1
    39    55    44 1
    40    55    45 1
    41    55    46 1
    42    25    20 ar
    43    20    21 ar
    44    22    21 ar
    45    21    47 1
    46    23    22 ar
    47    22    48 1
    48    24    23 ar
    49    23    49 1
    50    26    24 1
    51    24    25 ar
    52    25    50 1
    53    27    26 ar
    54    26    29 ar
    55    27    51 1
    56    28    52 1
    57    29    53 1
    58    54     9 1
@<TRIPOS>SUBSTRUCTURE
     1 BX2         1 TEMP              0 ****  ****    0 ROOT
