@<TRIPOS>MOLECULE
BX2
   55    58     1     0     0
SMALL
bcc


@<TRIPOS>ATOM
      1 C1           0.0000     0.0000     0.0000 c3         1 BX2       0.011900
      2 N1           1.6300     0.9390     2.2550 nb         1 BX2      -0.538000
      3 O1           3.6460    -2.0670     5.9880 o          1 BX2      -0.534500
      4 C2           1.5300     0.0000     0.0000 c3         1 BX2      -0.072700
      5 N2           3.6370    -3.9430     4.6590 n          1 BX2      -0.045300
      6 C3           2.0330     0.0000     1.4210 ca         1 BX2       0.400600
      7 N3           4.3590    -3.1690     2.7020 n2         1 BX2      -0.419900
      8 C4           2.9100    -0.9830     1.8350 ca         1 BX2      -0.218300
      9 N4           3.8630    -5.4690     2.7930 nz         1 BX2       0.222400
     10 C5           3.3670    -0.9740     3.1440 ca         1 BX2      -0.086300
     11 N5           6.8120     2.0440     8.0480 nb         1 BX2      -0.615000
     12 C6           2.9220     0.0290     3.9910 ca         1 BX2      -0.218300
     13 N6           9.0000     2.2360     7.3420 nb         1 BX2      -0.615000
     14 C7           2.0440     0.9790     3.5060 ca         1 BX2       0.400600
     15 C8           1.5520     2.0740     4.4180 c3         1 BX2      -0.072700
     16 C9           1.8470     3.4350     3.7840 c3         1 BX2       0.011900
     17 C10          4.3250    -2.0290     3.6340 c3         1 BX2       0.157800
     18 C11          3.8290    -2.6350     4.9320 c          1 BX2       0.623500
     19 C12          3.9590    -4.2170     3.3530 c2         1 BX2       0.069800
     20 C14          5.7040    -1.4490     3.8110 ca         1 BX2      -0.116300
     21 C15          6.7110    -1.7780     2.9200 ca         1 BX2      -0.096000
     22 C16          7.9790    -1.2490     3.0770 ca         1 BX2      -0.079000
     23 C17          8.2470    -0.3880     4.1230 ca         1 BX2      -0.073000
     24 C18          7.2370    -0.0540     5.0220 cp         1 BX2       0.006000
     25 C19          5.9580    -0.5850     4.8560 ca         1 BX2      -0.089000
     26 C20          7.5180     0.8700     6.1480 cp         1 BX2      -0.301600
     27 C21          6.5180     1.2180     7.0590 ca         1 BX2       0.451200
     28 C22          8.0270     2.5380     8.1800 ca         1 BX2       0.644900
     29 C23          8.7910     1.4160     6.3270 ca         1 BX2       0.451200
     30 H1          -0.3610    -0.7120     0.7320 hc         1 BX2       0.009367
     31 H1A         -0.3610     0.9900     0.2500 hc         1 BX2       0.009367
     32 H1B         -0.3610    -0.2780    -0.9830 hc         1 BX2       0.009367
     33 H2           1.8910     0.8840    -0.5110 hc         1 BX2       0.024950
     34 H2A          1.8910    -0.8840    -0.5110 hc         1 BX2       0.024950
     35 H4           3.2370    -1.7520     1.1450 ha         1 BX2       0.130500
     36 HN4          4.1650    -5.4320     1.8400 hn         1 BX2       0.223133
     37 HN4A         2.9130    -5.7790     2.8300 hn         1 BX2       0.223133
     38 H6           3.2580     0.0670     5.0200 ha         1 BX2       0.130500
     39 H8           2.0580     2.0030     5.3730 hc         1 BX2       0.024950
     40 H8A          0.4840     1.9680     4.5660 hc         1 BX2       0.024950
     41 H9           1.1290     3.6310     2.9970 hc         1 BX2       0.009367
     42 H9A          2.8470     3.4310     3.3680 hc         1 BX2       0.009367
     43 H9B          1.7740     4.2080     4.5400 hc         1 BX2       0.009367
     44 H13          2.2740    -5.4220     5.2340 h1         1 BX2       0.036367
     45 H13A         3.9320    -5.6740     5.7970 h1         1 BX2       0.036367
     46 H13B         2.9170    -4.4420     6.5590 h1         1 BX2       0.036367
     47 H15          6.5050    -2.4530     2.0980 ha         1 BX2       0.108000
     48 H16          8.7640    -1.5090     2.3770 ha         1 BX2       0.116000
     49 H17          9.2410     0.0240     4.2450 ha         1 BX2       0.124000
     50 H19          5.1690    -0.3290     5.5530 ha         1 BX2       0.139000
     51 H21          5.5180     0.8160     6.9570 h4         1 BX2      -0.009900
     52 H22          8.2340     3.2130     9.0020 h5         1 BX2       0.009100
     53 H23          9.5950     1.1730     5.6430 h4         1 BX2      -0.009900
     54 H43          4.4530    -6.1040     3.2940 hn         1 BX2       0.223133
     55 C13          3.1590    -4.9350     5.6250 c3         1 BX2       0.065300
@<TRIPOS>BOND
     1     1     4 1   
     2     1    30 1   
     3     1    31 1   
     4     1    32 1   
     5     2     6 ar  
     6     2    14 ar  
     7     3    18 2   
     8     4     6 1   
     9     4    33 1   
    10     4    34 1   
    11     5    18 1   
    12     5    19 1   
    13     5    55 1   
    14     6     8 ar  
    15     7    17 1   
    16     7    19 2   
    17     8    10 ar  
    18     8    35 1   
    19     9    19 1   
    20     9    36 1   
    21     9    37 1   
    22     9    54 1   
    23    10    12 ar  
    24    10    17 1   
    25    11    27 ar  
    26    11    28 ar  
    27    12    14 ar  
    28    12    38 1   
    29    13    28 ar  
    30    13    29 ar  
    31    14    15 1   
    32    15    16 1   
    33    15    39 1   
    34    15    40 1   
    35    16    41 1   
    36    16    42 1   
    37    16    43 1   
    38    17    18 1   
    39    17    20 1   
    40    20    21 ar  
    41    20    25 ar  
    42    21    22 ar  
    43    21    47 1   
    44    22    23 ar  
    45    22    48 1   
    46    23    24 ar  
    47    23    49 1   
    48    24    25 ar  
    49    24    26 1   
    50    25    50 1   
    51    26    27 ar  
    52    26    29 ar  
    53    27    51 1   
    54    28    52 1   
    55    29    53 1   
    56    44    55 1   
    57    45    55 1   
    58    46    55 1   
@<TRIPOS>SUBSTRUCTURE
     1 BX2         1 TEMP              0 ****  ****    0 ROOT
