@<TRIPOS>MOLECULE
molecule
   64    67     1     0     0
SMALL
bcc


@<TRIPOS>ATOM
      1 N1           0.0000     0.0000     0.0000 n2         1 BX3      -0.781100
      2 C2           1.3020     0.0000     0.0000 ce         1 BX3       0.535800
      3 N3           1.9910     0.0000     1.1940 nz         1 BX3      -0.739600
      4 C4           2.0430    -0.0000    -1.2810 ca         1 BX3      -0.284900
      5 C5           3.4480    -0.0020    -1.2740 ca         1 BX3      -0.173000
      6 C6           4.1490    -0.0020    -2.4360 ca         1 BX3      -0.071000
      7 C7           3.4710    -0.0030    -3.6680 ca         1 BX3       0.008000
      8 C8           2.0540    -0.0030    -3.6880 ca         1 BX3      -0.046000
      9 C9           1.3460    -0.0010    -2.4770 ca         1 BX3      -0.027000
     10 C10          4.1750    -0.0040    -4.8830 ca         1 BX3      -0.160000
     11 C11          3.4910    -0.0040    -6.0600 ca         1 BX3       0.043000
     12 C12          1.3820     0.0020    -4.9230 ca         1 BX3      -0.138000
     13 C13          2.0970    -0.0040    -6.0800 ca         1 BX3       0.001700
     14 C14          1.3730    -0.0040    -7.4020 c3         1 BX3      -0.024100
     15 C15          1.1280    -1.4460    -7.8480 c3         1 BX3      -0.134400
     16 C16          0.4050    -1.4470    -9.1700 ca         1 BX3      -0.039300
     17 C17         -0.8360    -2.0460    -9.2760 ca         1 BX3      -0.102000
     18 C18         -1.5020    -2.0470   -10.4870 ca         1 BX3      -0.152000
     19 C19         -0.9230    -1.4480   -11.5960 ca         1 BX3       0.069100
     20 C20          0.3240    -0.8530   -11.4870 ca         1 BX3      -0.152000
     21 C21          0.9840    -0.8490   -10.2730 ca         1 BX3      -0.102000
     22 C22          2.4500    -2.1570    -7.9980 c          1 BX3       0.887600
     23 O23          3.2690    -2.2790    -6.9430 o          1 BX3      -0.815800
     24 O24          2.7700    -2.6170    -9.0690 o          1 BX3      -0.815800
     25 O25         -1.5760    -1.4480   -12.7880 os         1 BX3      -0.321900
     26 C26         -2.4230    -0.2970   -12.7950 c3         1 BX3       0.136100
     27 C27         -3.7630    -0.6460   -12.1450 c3         1 BX3      -0.114900
     28 N28         -4.7680     1.1230   -13.4910 nh         1 BX3      -0.788600
     29 C29         -3.5370     1.4070   -14.2410 c3         1 BX3       0.239300
     30 C30         -2.6580     0.1530   -14.2380 c3         1 BX3      -0.114900
     31 C31         -5.9960     1.3430   -14.0550 c2         1 BX3       0.654200
     32 N32         -7.0680     1.2050   -13.3450 n2         1 BX3      -0.922100
     33 C33         -6.0990     1.7490   -15.5030 c3         1 BX3      -0.186400
     34 C34         -4.6550     0.6050   -12.1210 c3         1 BX3       0.239300
     35 HN1         -0.5020    -0.0000    -0.8660 hn         1 BX3       0.479400
     36 HN31         2.5670     0.8170     1.2480 hn         1 BX3       0.466133
     37 HN32         1.3400     0.0010     1.9550 hn         1 BX3       0.466133
     38 H5           3.9780    -0.0040    -0.3290 ha         1 BX3       0.083000
     39 H6           5.2320    -0.0040    -2.4140 ha         1 BX3       0.145000
     40 H9           0.2720     0.1340    -2.4770 ha         1 BX3       0.125000
     41 H10          5.2590    -0.0040    -4.8840 ha         1 BX3       0.141000
     42 H11          4.0380    -0.0080    -6.9960 ha         1 BX3       0.170000
     43 H12          0.2990     0.0020    -4.9530 ha         1 BX3       0.132000
     44 H141         1.9750     0.5070    -8.1440 hc         1 BX3       0.043700
     45 H142         0.4240     0.5070    -7.2940 hc         1 BX3       0.043700
     46 H15          0.5260    -1.9570    -7.1070 hc         1 BX3       0.055700
     47 H17         -1.2880    -2.5130    -8.4090 ha         1 BX3       0.133500
     48 H18         -2.4760    -2.5140   -10.5690 ha         1 BX3       0.129000
     49 H20          0.7780    -0.3850   -12.3520 ha         1 BX3       0.129000
     50 H21          1.9580    -0.3840   -10.1880 ha         1 BX3       0.133500
     51 H26         -1.9540     0.5060   -12.2400 h1         1 BX3       0.046700
     52 H271        -4.2490    -1.4260   -12.7180 hc         1 BX3       0.060200
     53 H272        -3.5930    -0.9880   -11.1310 hc         1 BX3       0.060200
     54 H291        -3.7870     1.6710   -15.2610 h1         1 BX3       0.053450
     55 H292        -3.0040     2.2230   -13.7680 h1         1 BX3       0.053450
     56 H301        -3.1560    -0.6380   -14.7860 hc         1 BX3       0.060200
     57 H302        -1.7060     0.3790   -14.7040 hc         1 BX3       0.060200
     58 HN3         -7.9660     1.3670   -13.7570 hn         1 BX3       0.400400
     59 H331        -5.6810     0.9680   -16.1270 hc         1 BX3       0.050700
     60 H332        -5.5490     2.6690   -15.6600 hc         1 BX3       0.050700
     61 H333        -7.1390     1.9010   -15.7630 hc         1 BX3       0.050700
     62 H341        -5.6390     0.3420   -11.7500 h1         1 BX3       0.053450
     63 H342        -4.2080     1.3580   -11.4840 h1         1 BX3       0.053450
     64 H33          2.5810    -0.8070     1.2390 hn         1 BX3       0.466133
@<TRIPOS>BOND
     1     1     2 2
     2     1    35 1
     3     2     3 1
     4     2     4 1
     5     3    36 1
     6     3    37 1
     7     4     5 ar
     8     4     9 ar
     9     5     6 ar
    10     5    38 1
    11     6     7 ar
    12     6    39 1
    13     7     8 ar
    14     7    10 ar
    15     8     9 ar
    16     8    12 ar
    17     9    40 1
    18    10    11 ar
    19    10    41 1
    20    11    13 ar
    21    11    42 1
    22    12    13 ar
    23    12    43 1
    24    13    14 1
    25    14    15 1
    26    14    44 1
    27    14    45 1
    28    15    16 1
    29    15    22 1
    30    15    46 1
    31    16    17 ar
    32    16    21 ar
    33    17    18 ar
    34    17    47 1
    35    18    19 ar
    36    18    48 1
    37    19    20 ar
    38    19    25 1
    39    20    21 ar
    40    20    49 1
    41    21    50 1
    42    22    23 1
    43    22    24 1
    44    25    26 1
    45    26    27 1
    46    26    30 1
    47    26    51 1
    48    27    34 1
    49    27    52 1
    50    27    53 1
    51    28    29 1
    52    28    31 1
    53    28    34 1
    54    29    30 1
    55    29    54 1
    56    29    55 1
    57    30    56 1
    58    30    57 1
    59    31    32 2
    60    31    33 1
    61    32    58 1
    62    33    59 1
    63    33    60 1
    64    33    61 1
    65    34    62 1
    66    34    63 1
    67    64     3 1
@<TRIPOS>SUBSTRUCTURE
     1 BX3         1 TEMP              0 ****  ****    0 ROOT
