@<TRIPOS>MOLECULE
BX4
   30    31     1     0     0
SMALL
bcc


@<TRIPOS>ATOM
      1 S1           0.0000     0.0000     0.0000 sy         1 BX4       0.932200
      2 N1           1.6560     0.0000     0.0000 nz         1 BX4      -0.132500
      3 O2          -0.4020     0.0000     1.3630 o          1 BX4      -0.498300
      4 O3          -0.4010     0.9990    -0.9280 o          1 BX4      -0.498300
      5 C4          -0.5210    -1.5420    -0.6730 ca         1 BX4      -0.247500
      6 C5          -0.7260    -2.6260     0.1630 ca         1 BX4       0.021500
      7 C6          -1.1350    -3.8360    -0.3580 ca         1 BX4      -0.126000
      8 C7          -1.3420    -3.9660    -1.7300 cp         1 BX4       0.109000
      9 C8          -1.1350    -2.8720    -2.5680 ca         1 BX4      -0.126000
     10 C9          -0.7310    -1.6640    -2.0350 ca         1 BX4       0.021500
     11 C10         -1.7760    -5.2670    -2.2970 cp         1 BX4      -0.102000
     12 C11         -1.9770    -5.3980    -3.6710 ca         1 BX4      -0.075000
     13 C12         -2.3810    -6.6090    -4.1970 ca         1 BX4      -0.089000
     14 C13         -2.5850    -7.6940    -3.3660 ca         1 BX4      -0.070000
     15 C14         -2.3870    -7.5730    -1.9970 ca         1 BX4       0.040600
     16 C15         -1.9760    -6.3610    -1.4610 ca         1 BX4      -0.085000
     17 N2          -2.5950    -8.6730    -1.1610 nv         1 BX4      -0.560200
     18 H1           1.9900    -0.1070    -0.9370 hn         1 BX4       0.312467
     19 H2           1.9900    -0.7580     0.5620 hn         1 BX4       0.312467
     20 H3          -0.5640    -2.5230     1.2300 ha         1 BX4       0.123000
     21 H4          -1.2940    -4.6840     0.2980 ha         1 BX4       0.140000
     22 H5          -1.2970    -2.9670    -3.6350 ha         1 BX4       0.140000
     23 H6          -0.5700    -0.8130    -2.6850 ha         1 BX4       0.123000
     24 H7          -1.8180    -4.5490    -4.3250 ha         1 BX4       0.108000
     25 H8          -2.5370    -6.7080    -5.2640 ha         1 BX4       0.115000
     26 H9          -2.9040    -8.6410    -3.7840 ha         1 BX4       0.120000
     27 H10         -1.8210    -6.2650    -0.3930 ha         1 BX4       0.113000
     28 H11         -3.4990    -8.8360    -0.7640 hn         1 BX4       0.282800
     29 H12         -1.8410    -9.3020    -0.9660 hn         1 BX4       0.282800
     30 H13          1.9900     0.8670     0.3730 hn         1 BX4       0.312467
@<TRIPOS>BOND
     1     1     2 1   
     2     1     3 2   
     3     1     4 2   
     4     1     5 1   
     5     2    18 1   
     6     2    19 1   
     7     2    30 1   
     8     5     6 ar  
     9     5    10 ar  
    10     6     7 ar  
    11     6    20 1   
    12     7     8 ar  
    13     7    21 1   
    14     8     9 ar  
    15     8    11 1   
    16     9    10 ar  
    17     9    22 1   
    18    10    23 1   
    19    11    12 ar  
    20    11    16 ar  
    21    12    13 ar  
    22    12    24 1   
    23    13    14 ar  
    24    13    25 1   
    25    14    15 ar  
    26    14    26 1   
    27    15    16 ar  
    28    15    17 1   
    29    16    27 1   
    30    17    28 1   
    31    17    29 1   
@<TRIPOS>SUBSTRUCTURE
     1 BX4         1 TEMP              0 ****  ****    0 ROOT
