@<TRIPOS>MOLECULE
molecule
   60    63     1     0     0
SMALL
bcc


@<TRIPOS>ATOM
      1 I01          0.0000     0.0000     0.0000 i          1 BX7      -0.175900
      2 S02          2.1950    -0.0060     9.3260 ss         1 BX7      -0.109800
      3 O03          8.6210    -3.0430    -3.5120 o          1 BX7      -0.640100
      4 O04          5.7130    -0.0060     7.4870 o          1 BX7      -0.599100
      5 N05         10.2870    -3.4190    -4.9320 n          1 BX7      -0.514800
      6 N08          5.9320     0.0000    -1.6700 nu         1 BX7      -0.744300
      7 N09          3.7040    -0.0050     6.5370 ns         1 BX7      -0.585900
      8 N10          4.2980     0.0000     0.0000 nb         1 BX7      -0.859000
      9 N11          3.6620     0.0010    -2.2240 nb         1 BX7      -0.823000
     10 C12         12.0140    -5.1120    -5.1260 c3         1 BX7      -0.096900
     11 C13         12.4780    -3.8050    -5.8220 c3         1 BX7      -0.096900
     12 C14         11.1240    -3.1060    -6.1040 c3         1 BX7       0.107000
     13 C15         10.7880    -4.6540    -4.3100 c3         1 BX7       0.107000
     14 C16          9.2390    -2.6910    -4.4980 c          1 BX7       0.800100
     15 C17          7.7370    -0.8650    -4.7600 ca         1 BX7       0.087600
     16 C18          7.4030    -0.7850    -3.4140 ca         1 BX7      -0.153000
     17 C19          3.1730    -0.0030     4.1500 c3         1 BX7      -0.123400
     18 C20          6.9420    -0.2350    -5.7100 ca         1 BX7      -0.186000
     19 C22          6.2730    -0.0820    -3.0240 ca         1 BX7       0.165600
     20 C23          4.2900    -0.0040     5.1950 c3         1 BX7       0.120000
     21 C24          5.8180     0.4660    -5.3170 ca         1 BX7      -0.100000
     22 C25          5.4790     0.5420    -3.9790 ca         1 BX7      -0.142000
     23 C26          3.0290     0.0000     0.3970 ca         1 BX7       0.791200
     24 C27          4.6000     0.0000    -1.2890 ca         1 BX7       0.988900
     25 C28          2.0180     0.0000    -0.5660 ca         1 BX7      -0.319700
     26 C29          4.5030    -0.0060     7.6220 c          1 BX7       0.706700
     27 C30          2.3780     0.0010    -1.9000 ca         1 BX7       0.557200
     28 C31          3.9160    -0.0070     8.9650 cc         1 BX7      -0.121700
     29 C32          4.6180    -0.0080    10.1370 cd         1 BX7      -0.076000
     30 C33          3.8140    -0.0090    11.2520 cd         1 BX7      -0.173000
     31 C34          2.4990    -0.0080    11.0050 cc         1 BX7      -0.084100
     32 H1           9.3540    -1.3150    -5.9980 hn         1 BX7       0.318500
     33 H2           1.7580    -0.0010     2.0390 hn         1 BX7       0.459800
     34 H3           6.6500     0.0860    -0.9780 hn         1 BX7       0.468800
     35 H4           2.7090    -0.0040     6.6480 hn         1 BX7       0.313500
     36 H5          11.7270    -5.8540    -5.8610 hc         1 BX7       0.056700
     37 H6          12.7890    -5.4900    -4.4710 hc         1 BX7       0.056700
     38 H7          13.0890    -3.2090    -5.1550 hc         1 BX7       0.056700
     39 H8          12.9990    -4.0240    -6.7460 hc         1 BX7       0.056700
     40 H9          10.6750    -3.5080    -7.0040 h1         1 BX7       0.048200
     41 H10         11.2650    -2.0360    -6.1900 h1         1 BX7       0.048200
     42 H11         11.0820    -4.4560    -3.2860 h1         1 BX7       0.048200
     43 H12         10.0210    -5.4180    -4.3390 h1         1 BX7       0.048200
     44 H13          8.0690    -1.1980    -2.6660 ha         1 BX7       0.165000
     45 H14          2.5600     0.8810     4.2770 hc         1 BX7       0.052200
     46 H15          2.5600    -0.8880     4.2760 hc         1 BX7       0.052200
     47 H16          7.2050    -0.2920    -6.7590 ha         1 BX7       0.125000
     48 H17          4.3980    -0.8870     2.6200 h1         1 BX7       0.058200
     49 H18          4.3980     0.8820     2.6210 h1         1 BX7       0.058200
     50 H19          4.9030    -0.8880     5.0680 h1         1 BX7       0.059200
     51 H20          4.9030     0.8810     5.0690 h1         1 BX7       0.059200
     52 H21          5.1990     0.9550    -6.0600 ha         1 BX7       0.132000
     53 H22          4.5970     1.0920    -3.6740 ha         1 BX7       0.164000
     54 H23          1.6180     0.0020    -2.6720 h4         1 BX7       0.037100
     55 H24          5.7000    -0.0090    10.1840 ha         1 BX7       0.173000
     56 H25          4.2160    -0.0100    12.2580 ha         1 BX7       0.154000
     57 H26          1.7310    -0.0080    11.7680 h4         1 BX7       0.174000
     58 N07          2.7160    -0.0010     1.7470 nu         1 BX7      -0.906900
     59 N06          8.8760    -1.5730    -5.1580 ns         1 BX7      -0.487100
     60 C21          3.7860    -0.0020     2.7470 c3         1 BX7       0.242800
@<TRIPOS>BOND
     1    31    30 2
     2    31     2 1
     3    30    29 1
     4     2    28 1
     5    29    28 2
     6    28    26 1
     7    26     4 2
     8    26     7 1
     9     7    20 1
    10     1    25 1
    11    20    17 1
    12    58    60 1
    13    58    23 1
    14    60    17 1
    15    25    23 ar
    16    25    27 ar
    17    23     8 ar
    18    27     9 ar
    19     8    24 ar
    20     9    24 ar
    21    24     6 1
    22    22    21 ar
    23    22    19 ar
    24    21    18 ar
    25     6    19 1
    26    19    16 ar
    27    18    15 ar
    28    16    15 ar
    29    15    59 1
    30     3    14 2
    31    59    14 1
    32    14     5 1
    33     5    13 1
    34     5    12 1
    35    13    10 1
    36    12    11 1
    37    10    11 1
    38    59    32 1
    39    58    33 1
    40     6    34 1
    41     7    35 1
    42    10    36 1
    43    10    37 1
    44    11    38 1
    45    11    39 1
    46    12    40 1
    47    12    41 1
    48    13    42 1
    49    13    43 1
    50    16    44 1
    51    17    45 1
    52    17    46 1
    53    18    47 1
    54    60    48 1
    55    60    49 1
    56    20    50 1
    57    20    51 1
    58    21    52 1
    59    22    53 1
    60    27    54 1
    61    29    55 1
    62    30    56 1
    63    31    57 1
@<TRIPOS>SUBSTRUCTURE
     1 BX7         1 TEMP              0 ****  ****    0 ROOT
