@<TRIPOS>MOLECULE
BX7
   60    63     1     0     0
SMALL
bcc


@<TRIPOS>ATOM
      1 I01          0.0000     0.0000     0.0000 i          1 BX7      -0.271900
      2 S02          2.1950    -0.0060     9.3260 ss         1 BX7      -0.236800
      3 O03          8.6210    -3.0430    -3.5120 o          1 BX7      -0.691100
      4 O04          5.7130    -0.0060     7.4870 o          1 BX7      -0.642100
      5 N05         10.2870    -3.4190    -4.9320 n          1 BX7      -0.189800
      6 N08          5.9320     0.0000    -1.6700 nu         1 BX7      -0.272300
      7 N09          3.7040    -0.0050     6.5370 ns         1 BX7      -0.196900
      8 N10          4.2980     0.0000     0.0000 nb         1 BX7      -0.762000
      9 N11          3.6620     0.0010    -2.2240 nb         1 BX7      -0.735000
     10 C12         12.0140    -5.1120    -5.1260 c3         1 BX7      -0.033400
     11 C13         12.4780    -3.8050    -5.8220 c3         1 BX7      -0.033400
     12 C14         11.1240    -3.1060    -6.1040 c3         1 BX7       0.061000
     13 C15         10.7880    -4.6540    -4.3100 c3         1 BX7       0.061000
     14 C16          9.2390    -2.6910    -4.4980 c          1 BX7       0.599100
     15 C17          7.7370    -0.8650    -4.7600 ca         1 BX7      -0.058400
     16 C18          7.4030    -0.7850    -3.4140 ca         1 BX7      -0.125000
     17 C19          3.1730    -0.0030     4.1500 c3         1 BX7      -0.056400
     18 C20          6.9420    -0.2350    -5.7100 ca         1 BX7      -0.158000
     19 C22          6.2730    -0.0820    -3.0240 ca         1 BX7       0.007600
     20 C23          4.2900    -0.0040     5.1950 c3         1 BX7       0.057000
     21 C24          5.8180     0.4660    -5.3170 ca         1 BX7      -0.068000
     22 C25          5.4790     0.5420    -3.9790 ca         1 BX7      -0.125000
     23 C26          3.0290     0.0000     0.3970 ca         1 BX7       0.607200
     24 C27          4.6000     0.0000    -1.2890 ca         1 BX7       0.749900
     25 C28          2.0180     0.0000    -0.5660 ca         1 BX7      -0.190700
     26 C29          4.5030    -0.0060     7.6220 c          1 BX7       0.633700
     27 C30          2.3780     0.0010    -1.9000 ca         1 BX7       0.546200
     28 C31          3.9160    -0.0070     8.9650 cc         1 BX7      -0.084700
     29 C32          4.6180    -0.0080    10.1370 cd         1 BX7      -0.038000
     30 C33          3.8140    -0.0090    11.2520 cd         1 BX7      -0.144000
     31 C34          2.4990    -0.0080    11.0050 cc         1 BX7      -0.000100
     32 H1           9.3540    -1.3150    -5.9980 hn         1 BX7       0.164500
     33 H2           1.7580    -0.0010     2.0390 hn         1 BX7       0.308800
     34 H3           6.6500     0.0860    -0.9780 hn         1 BX7       0.292800
     35 H4           2.7090    -0.0040     6.6480 hn         1 BX7       0.181500
     36 H5          11.7270    -5.8540    -5.8610 hc         1 BX7       0.024700
     37 H6          12.7890    -5.4900    -4.4710 hc         1 BX7       0.024700
     38 H7          13.0890    -3.2090    -5.1550 hc         1 BX7       0.024700
     39 H8          12.9990    -4.0240    -6.7460 hc         1 BX7       0.024700
     40 H9          10.6750    -3.5080    -7.0040 h1         1 BX7       0.018200
     41 H10         11.2650    -2.0360    -6.1900 h1         1 BX7       0.018200
     42 H11         11.0820    -4.4560    -3.2860 h1         1 BX7       0.018200
     43 H12         10.0210    -5.4180    -4.3390 h1         1 BX7       0.018200
     44 H13          8.0690    -1.1980    -2.6660 ha         1 BX7       0.146000
     45 H14          2.5600     0.8810     4.2770 hc         1 BX7       0.021200
     46 H15          2.5600    -0.8880     4.2760 hc         1 BX7       0.021200
     47 H16          7.2050    -0.2920    -6.7590 ha         1 BX7       0.102000
     48 H17          4.3980    -0.8870     2.6200 h1         1 BX7       0.029700
     49 H18          4.3980     0.8820     2.6210 h1         1 BX7       0.029700
     50 H19          4.9030    -0.8880     5.0680 h1         1 BX7       0.031200
     51 H20          4.9030     0.8810     5.0690 h1         1 BX7       0.031200
     52 H21          5.1990     0.9550    -6.0600 ha         1 BX7       0.101000
     53 H22          4.5970     1.0920    -3.6740 ha         1 BX7       0.144000
     54 H23          1.6180     0.0020    -2.6720 h4         1 BX7      -0.010900
     55 H24          5.7000    -0.0090    10.1840 ha         1 BX7       0.141000
     56 H25          4.2160    -0.0100    12.2580 ha         1 BX7       0.124000
     57 H26          1.7310    -0.0080    11.7680 h4         1 BX7       0.150000
     58 N07          2.7160    -0.0010     1.7470 nu         1 BX7      -0.499900
     59 N06          8.8760    -1.5730    -5.1580 ns         1 BX7      -0.057100
     60 C21          3.7860    -0.0020     2.7470 c3         1 BX7       0.168800
@<TRIPOS>BOND
     1     1    25 1   
     2     2    28 1   
     3     2    31 1   
     4     3    14 2   
     5     4    26 2   
     6     5    12 1   
     7     5    13 1   
     8     5    14 1   
     9     6    19 1   
    10     6    24 1   
    11     6    34 1   
    12     7    20 1   
    13     7    26 1   
    14     7    35 1   
    15     8    23 ar  
    16     8    24 ar  
    17     9    24 ar  
    18     9    27 ar  
    19    10    11 1   
    20    10    13 1   
    21    10    36 1   
    22    10    37 1   
    23    11    12 1   
    24    11    38 1   
    25    11    39 1   
    26    12    40 1   
    27    12    41 1   
    28    13    42 1   
    29    13    43 1   
    30    14    59 1   
    31    15    16 ar  
    32    15    18 ar  
    33    15    59 1   
    34    16    19 ar  
    35    16    44 1   
    36    17    20 1   
    37    17    45 1   
    38    17    46 1   
    39    17    60 1   
    40    18    21 ar  
    41    18    47 1   
    42    19    22 ar  
    43    20    50 1   
    44    20    51 1   
    45    21    22 ar  
    46    21    52 1   
    47    22    53 1   
    48    23    25 ar  
    49    23    58 1   
    50    25    27 ar  
    51    26    28 1   
    52    27    54 1   
    53    28    29 2   
    54    29    30 1   
    55    29    55 1   
    56    30    31 2   
    57    30    56 1   
    58    31    57 1   
    59    32    59 1   
    60    33    58 1   
    61    48    60 1   
    62    49    60 1   
    63    58    60 1   
@<TRIPOS>SUBSTRUCTURE
     1 BX7         1 TEMP              0 ****  ****    0 ROOT
