@<TRIPOS>MOLECULE
molecule
    7     6     1     0     0
SMALL
bcc


@<TRIPOS>ATOM
      1 C1           0.0000     0.0000     0.0000 c          1 BXA       0.884600
      2 O1           1.2080     0.0000     0.0000 o          1 BXA      -0.828800
      3 C2          -0.7530     0.0000     1.3050 c3         1 BXA      -0.072000
      4 O2          -0.6710     0.0050    -1.1620 o          1 BXA      -0.828800
      5 Br2          0.5250     0.0000     2.7990 br         1 BXA      -0.261400
      6 H2          -1.3760    -0.8850     1.3630 h1         1 BXA       0.052700
      7 H2A         -1.3760     0.8840     1.3630 h1         1 BXA       0.052700
@<TRIPOS>BOND
     1     2     1 1
     2     4     1 1
     3     1     3 1
     4     3     5 1
     5     3     6 1
     6     3     7 1
@<TRIPOS>SUBSTRUCTURE
     1 BXA         1 TEMP              0 ****  ****    0 ROOT
