@<TRIPOS>MOLECULE
BXA
    7     6     1     0     0
SMALL
bcc


@<TRIPOS>ATOM
      1 C1         -0.0200   -0.0470   -0.0720 c         1 BXA      0.918600
      2 O1          1.1270    0.4290   -0.2910 o         1 BXA     -0.826300
      3 C2         -0.6260    0.1740    1.3280 c3        1 BXA     -0.094000
      4 O2         -0.7330   -0.6370   -0.9280 o         1 BXA     -0.826300
      5 BR2        -0.2460   -1.2410    2.5940 br        1 BXA     -0.267400
      6 H2         -1.7330    0.2250    1.2580 h1        1 BXA      0.047700
      7 H2A        -0.2110    1.1000    1.7790 h1        1 BXA      0.047700
@<TRIPOS>BOND
     1    1    2 1   
     2    1    3 1   
     3    1    4 1   
     4    3    5 1   
     5    3    6 1   
     6    3    7 1   
@<TRIPOS>SUBSTRUCTURE
     1 BXA         1 TEMP              0 ****  ****    0 ROOT
