@<TRIPOS>MOLECULE
BXB
   32    34     1     0     0
SMALL
bcc


@<TRIPOS>ATOM
      1 C1           0.0000     0.0000     0.0000 ca         1 BXB      -0.136600
      2 C2           1.3980     0.0000     0.0000 ca         1 BXB      -0.001600
      3 C3           2.0840     0.0000     1.1980 ca         1 BXB      -0.103500
      4 C4           1.3930    -0.0010     2.3960 ca         1 BXB      -0.067000
      5 C5           0.0090    -0.0010     2.4040 ca         1 BXB      -0.103500
      6 C6          -0.6920     0.0000     1.2140 ca         1 BXB      -0.001600
      7 C7          -0.7420     0.0060    -1.2780 c          1 BXB       0.588700
      8 N8          -1.0800     1.1760    -1.8550 ns         1 BXB      -0.183900
      9 O9          -1.0470    -1.0450    -1.8080 o          1 BXB      -0.625100
     10 Cl10         2.2690    -0.0000    -1.5020 cl         1 BXB      -0.002900
     11 Cl11        -2.4280    -0.0000     1.2250 cl         1 BXB      -0.002900
     12 C12         -1.8160     1.1820    -3.1210 c3         1 BXB       0.115300
     13 C13         -2.0680     2.6050    -3.5480 ca         1 BXB      -0.128300
     14 C14         -1.1490     3.2590    -4.3460 ca         1 BXB      -0.082000
     15 C15         -1.3750     4.5650    -4.7400 ca         1 BXB      -0.090000
     16 C16         -2.5260     5.2210    -4.3370 ca         1 BXB       0.065100
     17 C17         -3.4540     4.5620    -3.5330 ca         1 BXB       0.055100
     18 C18         -3.2230     3.2520    -3.1470 ca         1 BXB      -0.072000
     19 O19         -4.4900     5.4120    -3.2760 os         1 BXB      -0.312900
     20 C20         -4.3860     6.4560    -4.2620 c3         1 BXB       0.432200
     21 O21         -2.9820     6.4840    -4.5830 os         1 BXB      -0.313900
     22 H3           3.1680    -0.0000     1.2000 ha         1 BXB       0.119000
     23 H4           1.9370    -0.0010     3.3320 ha         1 BXB       0.109000
     24 H5          -0.5260    -0.0010     3.3460 ha         1 BXB       0.119000
     25 HN8         -0.8360     2.0400    -1.4130 hn         1 BXB       0.181500
     26 H12         -2.7620     0.6710    -2.9920 h1         1 BXB       0.031700
     27 H12A        -1.2320     0.6760    -3.8800 h1         1 BXB       0.031700
     28 H14         -0.2510     2.7460    -4.6680 ha         1 BXB       0.114000
     29 H15         -0.6520     5.0750    -5.3650 ha         1 BXB       0.115000
     30 H18         -3.9550     2.7290    -2.5440 ha         1 BXB       0.119000
     31 H20         -4.9580     6.1890    -5.1420 h2         1 BXB       0.015700
     32 H20A        -4.6820     7.4030    -3.8280 h2         1 BXB       0.015700
@<TRIPOS>BOND
     1     1     2 ar  
     2     1     6 ar  
     3     1     7 1   
     4     2     3 ar  
     5     2    10 1   
     6     3     4 ar  
     7     3    22 1   
     8     4     5 ar  
     9     4    23 1   
    10     5     6 ar  
    11     5    24 1   
    12     6    11 1   
    13     7     8 1   
    14     7     9 2   
    15     8    12 1   
    16     8    25 1   
    17    12    13 1   
    18    12    26 1   
    19    12    27 1   
    20    13    14 ar  
    21    13    18 ar  
    22    14    15 ar  
    23    14    28 1   
    24    15    16 ar  
    25    15    29 1   
    26    16    17 ar  
    27    16    21 1   
    28    17    18 ar  
    29    17    19 1   
    30    18    30 1   
    31    19    20 1   
    32    20    21 1   
    33    20    31 1   
    34    20    32 1   
@<TRIPOS>SUBSTRUCTURE
     1 BXB         1 TEMP              0 ****  ****    0 ROOT
