@<TRIPOS>MOLECULE
molecule
   80    80     1     0     0
SMALL
bcc


@<TRIPOS>ATOM
      1 CAA          0.0000     0.0000     0.0000 c3         1 BXC      -0.087600
      2 CAB          1.5300     0.0000     0.0000 c3         1 BXC      -0.077700
      3 CAC          2.0400     0.0000     1.4420 c3         1 BXC      -0.087600
      4 CAD          2.0400    -1.2500    -0.7210 c3         1 BXC      -0.076400
      5 CAE          1.6350    -1.1890    -2.1950 c3         1 BXC      -0.084400
      6 CAF          2.1450    -2.4380    -2.9160 c3         1 BXC      -0.077400
      7 CAG          1.7390    -2.3780    -4.3910 c3         1 BXC      -0.074700
      8 CAH          2.4490    -1.2020    -5.0660 c3         1 BXC      -0.090100
      9 CAI          2.1400    -3.6810    -5.0840 c3         1 BXC      -0.077400
     10 CAJ          1.6250    -3.6720    -6.5250 c3         1 BXC      -0.085400
     11 CAK          2.0240    -4.9750    -7.2170 c3         1 BXC      -0.077400
     12 CAL          1.5090    -4.9670    -8.6580 c3         1 BXC      -0.074700
     13 CAM          2.2120    -3.8580    -9.4440 c3         1 BXC      -0.091100
     14 CAN          1.7990    -6.3180    -9.3130 c3         1 BXC      -0.077400
     15 CAO          1.1760    -6.3540   -10.7090 c3         1 BXC      -0.085400
     16 CAP          1.4660    -7.7050   -11.3630 c3         1 BXC      -0.075400
     17 CAQ          0.8420    -7.7410   -12.7600 c3         1 BXC      -0.073700
     18 CAR          1.5280    -6.7040   -13.6510 c3         1 BXC      -0.097100
     19 CAS          1.0240    -9.1350   -13.3640 c3         1 BXC      -0.076400
     20 CAT          0.2930    -9.2070   -14.7070 c3         1 BXC       0.133400
     21 OAU          0.4630   -10.5100   -15.2720 os         1 BXC      -0.400600
     22 CAV         -0.1840   -10.6830   -16.5340 c3         1 BXC       0.337900
     23 OAW          0.4940    -9.9140   -17.5290 os         1 BXC      -0.417600
     24 CAX         -0.0900    -9.9980   -18.8300 c3         1 BXC       0.131400
     25 CAY         -0.0520   -11.4500   -19.3130 c3         1 BXC       0.109100
     26 OAZ          1.3060   -11.8810   -19.4210 oh         1 BXC      -0.543800
     27 CBA         -0.7920   -12.3340   -18.3050 c3         1 BXC       0.135100
     28 OBB         -0.6980   -13.7010   -18.7100 oh         1 BXC      -0.575800
     29 CBC         -0.1510   -12.1640   -16.9250 c3         1 BXC       0.129100
     30 OBD          1.2050   -12.6140   -16.9690 oh         1 BXC      -0.539800
     31 HAA         -0.3610     0.6360     0.7990 hc         1 BXC       0.033200
     32 HAAA        -0.3610     0.3740    -0.9500 hc         1 BXC       0.033200
     33 HAAB        -0.3610    -1.0100     0.1510 hc         1 BXC       0.033200
     34 HAB          1.8910     0.8840    -0.5110 hc         1 BXC       0.048700
     35 HAC          1.7060     0.9000     1.9430 hc         1 BXC       0.033200
     36 HACA         1.6530    -0.8680     1.9620 hc         1 BXC       0.033200
     37 HACB         3.1230    -0.0320     1.4420 hc         1 BXC       0.033200
     38 HAD          3.1190    -1.2960    -0.6440 hc         1 BXC       0.041200
     39 HADA         1.6070    -2.1320    -0.2640 hc         1 BXC       0.041200
     40 HAE          2.0670    -0.3060    -2.6510 hc         1 BXC       0.043200
     41 HAEA         0.5550    -1.1430    -2.2710 hc         1 BXC       0.043200
     42 HAF          1.7140    -3.3200    -2.4590 hc         1 BXC       0.041200
     43 HAFA         3.2250    -2.4830    -2.8410 hc         1 BXC       0.041200
     44 HAG          0.6670    -2.2430    -4.4650 hc         1 BXC       0.049700
     45 HAH          2.2150    -0.2870    -4.5360 hc         1 BXC       0.034367
     46 HAHA         2.1140    -1.1200    -6.0930 hc         1 BXC       0.034367
     47 HAHB         3.5190    -1.3670    -5.0470 hc         1 BXC       0.034367
     48 HAI          1.7080    -4.5210    -4.5520 hc         1 BXC       0.041700
     49 HAIA         3.2190    -3.7720    -5.0870 hc         1 BXC       0.041700
     50 HAJ          0.5450    -3.5800    -6.5220 hc         1 BXC       0.043700
     51 HAJA         2.0570    -2.8330    -7.0570 hc         1 BXC       0.043700
     52 HAK          1.5920    -5.8140    -6.6840 hc         1 BXC       0.041700
     53 HAKA         3.1030    -5.0670    -7.2200 hc         1 BXC       0.041700
     54 HAL          0.4400    -4.7870    -8.6590 hc         1 BXC       0.049700
     55 HAM          3.2800    -4.0410    -9.4500 hc         1 BXC       0.034367
     56 HAMA         1.8420    -3.8460   -10.4620 hc         1 BXC       0.034367
     57 HAMB         2.0130    -2.9010    -8.9760 hc         1 BXC       0.034367
     58 HAN          2.8700    -6.4580    -9.3920 hc         1 BXC       0.041700
     59 HANA         1.3750    -7.1110    -8.7080 hc         1 BXC       0.041700
     60 HAO          1.5990    -5.5610   -11.3140 hc         1 BXC       0.043200
     61 HAOA         0.1040    -6.2140   -10.6300 hc         1 BXC       0.043200
     62 HAP          1.0420    -8.4980   -10.7580 hc         1 BXC       0.043700
     63 HAPA         2.5370    -7.8450   -11.4430 hc         1 BXC       0.043700
     64 HAQ         -0.2150    -7.5130   -12.6890 hc         1 BXC       0.047700
     65 HAR          2.2950    -6.1910   -13.0840 hc         1 BXC       0.038033
     66 HARA         1.9800    -7.2010   -14.5010 hc         1 BXC       0.038033
     67 HARB         0.7960    -5.9860   -14.0010 hc         1 BXC       0.038033
     68 HAS          2.0790    -9.3280   -13.5160 hc         1 BXC       0.054700
     69 HASA         0.6140    -9.8770   -12.6900 hc         1 BXC       0.054700
     70 HAT         -0.7620    -9.0140   -14.5550 h1         1 BXC       0.031700
     71 HATA         0.7030    -8.4650   -15.3820 h1         1 BXC       0.031700
     72 HAV         -1.2140   -10.3540   -16.4650 h2         1 BXC       0.016700
     73 HAX         -1.1180    -9.6600   -18.7850 h1         1 BXC       0.047700
     74 HAXA         0.4710    -9.3750   -19.5160 h1         1 BXC       0.047700
     75 HAY         -0.5370   -11.5210   -20.2780 h1         1 BXC       0.032700
     76 HOAZ         1.5700   -11.8670   -20.3260 ho         1 BXC       0.390000
     77 HBA         -1.8320   -12.0360   -18.2580 h1         1 BXC       0.033700
     78 HOBB        -1.5640   -14.0510   -18.8370 ho         1 BXC       0.394000
     79 HBC         -0.7060   -12.7420   -16.1960 h1         1 BXC       0.040700
     80 HOBD         1.3390   -13.2760   -16.3110 ho         1 BXC       0.397000
@<TRIPOS>BOND
     1     1     2 1
     2     2     3 1
     3     2     4 1
     4     4     5 1
     5     5     6 1
     6     6     7 1
     7     7     8 1
     8     7     9 1
     9     9    10 1
    10    10    11 1
    11    11    12 1
    12    12    13 1
    13    12    14 1
    14    14    15 1
    15    15    16 1
    16    16    17 1
    17    17    18 1
    18    17    19 1
    19    19    20 1
    20    20    21 1
    21    21    22 1
    22    22    23 1
    23    22    29 1
    24    23    24 1
    25    24    25 1
    26    25    26 1
    27    25    27 1
    28    27    28 1
    29    27    29 1
    30    29    30 1
    31     1    31 1
    32     1    32 1
    33     1    33 1
    34     2    34 1
    35     3    35 1
    36     3    36 1
    37     3    37 1
    38     4    38 1
    39     4    39 1
    40     5    40 1
    41     5    41 1
    42     6    42 1
    43     6    43 1
    44     7    44 1
    45     8    45 1
    46     8    46 1
    47     8    47 1
    48     9    48 1
    49     9    49 1
    50    10    50 1
    51    10    51 1
    52    11    52 1
    53    11    53 1
    54    12    54 1
    55    13    55 1
    56    13    56 1
    57    13    57 1
    58    14    58 1
    59    14    59 1
    60    15    60 1
    61    15    61 1
    62    16    62 1
    63    16    63 1
    64    17    64 1
    65    18    65 1
    66    18    66 1
    67    18    67 1
    68    19    68 1
    69    19    69 1
    70    20    70 1
    71    20    71 1
    72    22    72 1
    73    24    73 1
    74    24    74 1
    75    25    75 1
    76    26    76 1
    77    27    77 1
    78    28    78 1
    79    29    79 1
    80    30    80 1
@<TRIPOS>SUBSTRUCTURE
     1 BXC         1 TEMP              0 ****  ****    0 ROOT
