@<TRIPOS>MOLECULE
BXC
   80    80     1     0     0
SMALL
bcc


@<TRIPOS>ATOM
      1 CAA        -0.9980   -1.4980   -0.2020 c3        1 BXC     -0.089600
      2 CAB         0.4880   -1.2990    0.0150 c3        1 BXC     -0.067700
      3 CAC         0.8460   -1.5820    1.4600 c3        1 BXC     -0.089600
      4 CAD         1.3080   -2.1860   -0.9110 c3        1 BXC     -0.076400
      5 CAE         1.3120   -1.6820   -2.3390 c3        1 BXC     -0.079400
      6 CAF         2.1730   -2.5610   -3.2210 c3        1 BXC     -0.076400
      7 CAG         2.1300   -2.1360   -4.6840 c3        1 BXC     -0.064700
      8 CAH         2.8780   -0.8360   -4.8920 c3        1 BXC     -0.089100
      9 CAI         2.7080   -3.2410   -5.5590 c3        1 BXC     -0.076400
     10 CAJ         2.3230   -3.0840   -7.0150 c3        1 BXC     -0.079400
     11 CAK         2.8820   -4.2190   -7.8480 c3        1 BXC     -0.076400
     12 CAL         2.4580   -4.1300   -9.3090 c3        1 BXC     -0.064700
     13 CAM         3.1910   -3.0090  -10.0170 c3        1 BXC     -0.089100
     14 CAN         2.7080   -5.4640  -10.0000 c3        1 BXC     -0.076400
     15 CAO         1.9640   -5.5810  -11.3130 c3        1 BXC     -0.079400
     16 CAP         2.1900   -6.9400  -11.9430 c3        1 BXC     -0.076400
     17 CAQ         1.4300   -7.1020  -13.2540 c3        1 BXC     -0.062700
     18 CAR         2.1090   -6.3380  -14.3720 c3        1 BXC     -0.093100
     19 CAS         1.3180   -8.5810  -13.5960 c3        1 BXC     -0.083400
     20 CAT         0.3590   -8.8110  -14.7510 c3        1 BXC      0.140400
     21 OAU         0.1810  -10.2320  -14.8380 os        1 BXC     -0.431600
     22 CAV        -0.7530  -10.6290  -15.8160 c3        1 BXC      0.298900
     23 OAW        -0.1280  -10.2350  -17.0330 os        1 BXC     -0.439600
     24 CAX        -0.8430  -10.6570  -18.1870 c3        1 BXC      0.100400
     25 CAY        -1.0160  -12.1750  -18.2380 c3        1 BXC      0.082100
     26 OAZ         0.2100  -12.8310  -18.4850 oh        1 BXC     -0.593800
     27 CBA        -1.6600  -12.6880  -16.9360 c3        1 BXC      0.118100
     28 OBB        -1.7090  -14.0950  -16.9200 oh        1 BXC     -0.580800
     29 CBC        -0.9010  -12.1590  -15.7040 c3        1 BXC      0.091100
     30 OBD         0.3570  -12.8120  -15.6860 oh        1 BXC     -0.606800
     31 HAA        -1.2870   -2.5570    0.0070 hc        1 BXC      0.033200
     32 HAAA       -1.5800   -0.8330    0.4810 hc        1 BXC      0.033200
     33 HAAB       -1.2770   -1.2560   -1.2550 hc        1 BXC      0.033200
     34 HAB         0.7390   -0.2230   -0.2080 hc        1 BXC      0.045700
     35 HAC         0.6490   -2.6520    1.7090 hc        1 BXC      0.033200
     36 HACA        1.9270   -1.3700    1.6430 hc        1 BXC      0.033200
     37 HACB        0.2380   -0.9420    2.1420 hc        1 BXC      0.033200
     38 HAD         2.3660   -2.2290   -0.5360 hc        1 BXC      0.040200
     39 HADA        0.9040   -3.2320   -0.8800 hc        1 BXC      0.040200
     40 HAE         0.2630   -1.6630   -2.7370 hc        1 BXC      0.040700
     41 HAEA        1.6940   -0.6280   -2.3620 hc        1 BXC      0.040700
     42 HAF         3.2340   -2.5370   -2.8580 hc        1 BXC      0.039700
     43 HAFA        1.8160   -3.6220   -3.1340 hc        1 BXC      0.039700
     44 HAG         1.0530   -1.9790   -4.9760 hc        1 BXC      0.047700
     45 HAH         2.8430   -0.5310   -5.9660 hc        1 BXC      0.033367
     46 HAHA        3.9490   -0.9450   -4.5910 hc        1 BXC      0.033367
     47 HAHB        2.4220   -0.0200   -4.2820 hc        1 BXC      0.033367
     48 HAI         3.8250   -3.2470   -5.4620 hc        1 BXC      0.039700
     49 HAIA        2.3380   -4.2370   -5.1920 hc        1 BXC      0.039700
     50 HAJ         1.2050   -3.0630   -7.1090 hc        1 BXC      0.040200
     51 HAJA        2.7070   -2.1040   -7.4040 hc        1 BXC      0.040200
     52 HAK         4.0010   -4.2180   -7.7840 hc        1 BXC      0.039700
     53 HAKA        2.5250   -5.1930   -7.4180 hc        1 BXC      0.039700
     54 HAL         1.3530   -3.9130   -9.3450 hc        1 BXC      0.047700
     55 HAM         2.8630   -2.9380  -11.0820 hc        1 BXC      0.033367
     56 HAMA        2.9810   -2.0300   -9.5210 hc        1 BXC      0.033367
     57 HAMB        4.2940   -3.1850   -9.9970 hc        1 BXC      0.033367
     58 HAN         2.3830   -6.2990   -9.3230 hc        1 BXC      0.040700
     59 HANA        3.8090   -5.5910  -10.1770 hc        1 BXC      0.040700
     60 HAO         2.3040   -4.7770  -12.0160 hc        1 BXC      0.041200
     61 HAOA        0.8660   -5.4260  -11.1380 hc        1 BXC      0.041200
     62 HAP         1.8590   -7.7340  -11.2210 hc        1 BXC      0.042200
     63 HAPA        3.2850   -7.0940  -12.1260 hc        1 BXC      0.042200
     64 HAQ         0.3910   -6.6880  -13.1170 hc        1 BXC      0.046700
     65 HAR         1.5090   -6.4040  -15.3110 hc        1 BXC      0.036033
     66 HARA        2.2160   -5.2600  -14.0990 hc        1 BXC      0.036033
     67 HARB        3.1260   -6.7540  -14.5720 hc        1 BXC      0.036033
     68 HAS         2.3260   -8.9900  -13.8620 hc        1 BXC      0.054700
     69 HASA        0.9500   -9.1510  -12.7030 hc        1 BXC      0.054700
     70 HAT        -0.6350   -8.3270  -14.5600 h1        1 BXC      0.041200
     71 HATA        0.7790   -8.4340  -15.7200 h1        1 BXC      0.041200
     72 HAV        -1.7430  -10.1080  -15.6990 h2        1 BXC      0.045700
     73 HAX        -1.8460  -10.1550  -18.2180 h1        1 BXC      0.062700
     74 HAXA       -0.2030  -10.3070  -19.0410 h1        1 BXC      0.062700
     75 HAY        -1.6650  -12.4610  -19.1140 h1        1 BXC      0.092700
     76 HOAZ        0.8200  -12.5810  -17.7750 ho        1 BXC      0.427000
     77 HBA        -2.7330  -12.3550  -16.8790 h1        1 BXC      0.079700
     78 HOBB       -0.8010  -14.4110  -17.0490 ho        1 BXC      0.429000
     79 HBC        -1.4600  -12.4110  -14.7620 h1        1 BXC      0.067700
     80 HOBD        0.9160  -12.3420  -15.0530 ho        1 BXC      0.434000
@<TRIPOS>BOND
     1    1    2 1   
     2    1   31 1   
     3    1   32 1   
     4    1   33 1   
     5    2    3 1   
     6    2    4 1   
     7    2   34 1   
     8    3   35 1   
     9    3   36 1   
    10    3   37 1   
    11    4    5 1   
    12    4   38 1   
    13    4   39 1   
    14    5    6 1   
    15    5   40 1   
    16    5   41 1   
    17    6    7 1   
    18    6   42 1   
    19    6   43 1   
    20    7    8 1   
    21    7    9 1   
    22    7   44 1   
    23    8   45 1   
    24    8   46 1   
    25    8   47 1   
    26    9   10 1   
    27    9   48 1   
    28    9   49 1   
    29   10   11 1   
    30   10   50 1   
    31   10   51 1   
    32   11   12 1   
    33   11   52 1   
    34   11   53 1   
    35   12   13 1   
    36   12   14 1   
    37   12   54 1   
    38   13   55 1   
    39   13   56 1   
    40   13   57 1   
    41   14   15 1   
    42   14   58 1   
    43   14   59 1   
    44   15   16 1   
    45   15   60 1   
    46   15   61 1   
    47   16   17 1   
    48   16   62 1   
    49   16   63 1   
    50   17   18 1   
    51   17   19 1   
    52   17   64 1   
    53   18   65 1   
    54   18   66 1   
    55   18   67 1   
    56   19   20 1   
    57   19   68 1   
    58   19   69 1   
    59   20   21 1   
    60   20   70 1   
    61   20   71 1   
    62   21   22 1   
    63   22   23 1   
    64   22   29 1   
    65   22   72 1   
    66   23   24 1   
    67   24   25 1   
    68   24   73 1   
    69   24   74 1   
    70   25   26 1   
    71   25   27 1   
    72   25   75 1   
    73   26   76 1   
    74   27   28 1   
    75   27   29 1   
    76   27   77 1   
    77   28   78 1   
    78   29   30 1   
    79   29   79 1   
    80   30   80 1   
@<TRIPOS>SUBSTRUCTURE
     1 BXC         1 TEMP              0 ****  ****    0 ROOT
