@<TRIPOS>MOLECULE
molecule
   78    80     1     0     0
SMALL
bcc


@<TRIPOS>ATOM
      1 F1           0.0000     0.0000     0.0000 f          1 BXD      -0.215300
      2 C2           1.3990     0.0000     0.0000 c3         1 BXD       0.595900
      3 F3           1.8650     0.0000     1.3190 f          1 BXD      -0.215300
      4 F4           1.8650    -1.1430    -0.6590 f          1 BXD      -0.215300
      5 C5           1.9100     1.2480    -0.7220 c3         1 BXD       0.103100
      6 O7           1.4330     2.4160    -0.0490 os         1 BXD      -0.298900
      7 C8           2.1700     2.8660     1.0020 ca         1 BXD       0.066100
      8 C9           1.7090     3.9310     1.7720 ca         1 BXD       0.170600
      9 C10          2.4660     4.3870     2.8430 ca         1 BXD       0.074900
     10 C11          3.6740     3.7820     3.1430 ca         1 BXD      -0.148000
     11 C13          4.1290     2.7240     2.3780 ca         1 BXD      -0.088300
     12 C14          3.3780     2.2630     1.3120 ca         1 BXD      -0.169000
     13 C16          5.4460     2.0700     2.7080 c3         1 BXD      -0.015100
     14 C19          5.2110     0.9230     3.6940 c3         1 BXD      -0.061700
     15 C21          6.5230     0.1800     3.9270 c3         1 BXD       0.132100
     16 C23          6.2790    -1.1120     4.7030 c3         1 BXD       0.173500
     17 C25          5.8840    -0.7890     6.1450 c3         1 BXD      -0.194600
     18 S28          4.3070     0.1130     6.1390 s6         1 BXD       1.097000
     19 C29          4.6900     1.4890     5.0170 c3         1 BXD      -0.203600
     20 O32          4.0770     0.6350     7.4400 o          1 BXD      -0.609300
     21 O33          3.3170    -0.7070     5.5340 o          1 BXD      -0.609300
     22 N34          7.5080    -1.9190     4.7040 n7         1 BXD      -0.808200
     23 C36          7.2000    -3.3440     4.8840 c3         1 BXD       0.205100
     24 C39          8.4810    -4.1380     4.8820 ca         1 BXD      -0.087300
     25 C40          9.1540    -4.3700     6.0670 ca         1 BXD      -0.101000
     26 C42         10.3280    -5.0980     6.0630 ca         1 BXD      -0.071300
     27 C43         10.8310    -5.5940     4.8750 ca         1 BXD      -0.127000
     28 C45         10.1580    -5.3630     3.6900 ca         1 BXD      -0.128000
     29 C47          8.9800    -4.6380     3.6940 ca         1 BXD      -0.129000
     30 C49         11.0610    -5.3510     7.3560 c3         1 BXD      -0.023700
     31 C50         11.4580    -4.0150     7.9870 c3         1 BXD      -0.080767
     32 C54         10.1530    -6.1200     8.3160 c3         1 BXD      -0.080767
     33 C58         12.3200    -6.1740     7.0740 c3         1 BXD      -0.080767
     34 O62          7.1190    -0.1330     2.6670 oh         1 BXD      -0.600800
     35 F64          2.0240     5.4210     3.5920 f          1 BXD      -0.140900
     36 N65          0.4860     4.5430     1.4650 nv         1 BXD      -0.908200
     37 C68          1.4000     1.2480    -2.1650 c3         1 BXD       0.139400
     38 O71         -0.0250     1.1310    -2.1670 os         1 BXD      -0.413600
     39 C72         -0.6050     1.1210    -3.4720 c3         1 BXD       0.136400
     40 C75         -2.1260     0.9930    -3.3530 c3         1 BXD      -0.089100
     41 H1           2.9930     1.2480    -0.7220 h1         1 BXD       0.085700
     42 H2           4.2650     4.1390     3.9780 ha         1 BXD       0.146000
     43 H3           3.7380     1.4330     0.7150 ha         1 BXD       0.140000
     44 H4           5.8930     1.6810     1.8010 hc         1 BXD       0.056200
     45 H5           6.1100     2.8000     3.1540 hc         1 BXD       0.056200
     46 H6           4.4790     0.2360     3.2860 hc         1 BXD       0.090700
     47 H7           7.1930     0.8130     4.4960 h1         1 BXD       0.046700
     48 H8           5.4790    -1.6670     4.2290 h1         1 BXD       0.059700
     49 H9           6.6510    -0.1740     6.6010 h1         1 BXD       0.109200
     50 H10          5.7720    -1.7100     6.7040 h1         1 BXD       0.109200
     51 H11          5.4500     2.1200     5.4650 h1         1 BXD       0.108700
     52 H12          3.7930     2.0680     4.8350 h1         1 BXD       0.108700
     53 H13          7.9930    -1.7890     3.8380 hn         1 BXD       0.370800
     54 H15          6.6890    -3.4860     5.8290 h1         1 BXD       0.041700
     55 H16          6.5640    -3.6810     4.0750 h1         1 BXD       0.041700
     56 H17          8.7600    -3.9810     6.9980 ha         1 BXD       0.136000
     57 H18         11.7520    -6.1630     4.8730 ha         1 BXD       0.136000
     58 H19         10.5510    -5.7540     2.7590 ha         1 BXD       0.129000
     59 H20          8.4520    -4.4570     2.7650 ha         1 BXD       0.128000
     60 H21         11.9370    -3.3910     7.2430 hc         1 BXD       0.037144
     61 H22         12.1440    -4.1920     8.8070 hc         1 BXD       0.037144
     62 H23         10.5720    -3.5150     8.3610 hc         1 BXD       0.037144
     63 H24          9.3780    -5.4600     8.6870 hc         1 BXD       0.037144
     64 H25          9.6970    -6.9520     7.7930 hc         1 BXD       0.037144
     65 H26         10.7390    -6.4930     9.1470 hc         1 BXD       0.037144
     66 H27         12.8480    -6.3550     8.0030 hc         1 BXD       0.037144
     67 H28         12.9630    -5.6300     6.3930 hc         1 BXD       0.037144
     68 H29         12.0400    -7.1210     6.6280 hc         1 BXD       0.037144
     69 H30          7.9550     0.2980     2.5990 ho         1 BXD       0.412000
     70 H31         -0.0390     4.2400     0.6690 hn         1 BXD       0.444300
     71 H32          0.1540     5.3050     2.0220 hn         1 BXD       0.444300
     72 H33          1.8310     0.4110    -2.7000 h1         1 BXD       0.049200
     73 H34          1.6860     2.1740    -2.6490 h1         1 BXD       0.049200
     74 H35         -0.2150     0.2820    -4.0350 h1         1 BXD       0.022700
     75 H36         -0.3600     2.0440    -3.9830 h1         1 BXD       0.022700
     76 H37         -2.5000     1.7500    -2.6740 hc         1 BXD       0.047033
     77 H38         -2.5770     1.1280    -4.3290 hc         1 BXD       0.047033
     78 H39         -2.3760     0.0100    -2.9720 hc         1 BXD       0.047033
@<TRIPOS>BOND
     1    20    18 2
     2    17    18 1
     3    17    16 1
     4    18    21 2
     5    18    19 1
     6    38    37 1
     7    38    39 1
     8    40    39 1
     9    23    22 1
    10    23    24 1
    11    29    24 ar
    12    29    28 ar
    13    37     5 1
    14    22    16 1
    15     4     2 1
    16    19    14 1
    17    24    25 ar
    18    16    15 1
    19    28    27 ar
    20     5     2 1
    21     5     6 1
    22     2     1 1
    23     2     3 1
    24    15    14 1
    25    15    34 1
    26    14    13 1
    27    25    26 ar
    28    27    26 ar
    29     6     7 1
    30    26    30 1
    31    12     7 ar
    32    12    11 ar
    33    13    11 1
    34     7     8 ar
    35    11    10 ar
    36     8    36 1
    37     8     9 ar
    38    10     9 ar
    39    31    30 1
    40    30    32 1
    41    30    33 1
    42     9    35 1
    43     5    41 1
    44    10    42 1
    45    12    43 1
    46    13    44 1
    47    13    45 1
    48    14    46 1
    49    15    47 1
    50    16    48 1
    51    17    49 1
    52    17    50 1
    53    19    51 1
    54    19    52 1
    55    22    53 1
    56    23    54 1
    57    23    55 1
    58    25    56 1
    59    27    57 1
    60    28    58 1
    61    29    59 1
    62    31    60 1
    63    31    61 1
    64    31    62 1
    65    32    63 1
    66    32    64 1
    67    32    65 1
    68    33    66 1
    69    33    67 1
    70    33    68 1
    71    34    69 1
    72    36    70 1
    73    36    71 1
    74    37    72 1
    75    37    73 1
    76    39    74 1
    77    39    75 1
    78    40    76 1
    79    40    77 1
    80    40    78 1
@<TRIPOS>SUBSTRUCTURE
     1 BXD         1 TEMP              0 ****  ****    0 ROOT
