@<TRIPOS>MOLECULE
BXG
   37    39     1     0     0
SMALL
bcc


@<TRIPOS>ATOM
      1 C10          0.0000     0.0000     0.0000 ca         1 BXG      -0.181600
      2 N12         -2.0900     0.0120    -1.2730 ns         1 BXG      -0.007100
      3 C13         -2.7890     0.1340    -2.4690 ca         1 BXG      -0.075400
      4 C15         -4.7770    -0.2170    -3.8370 ca         1 BXG       0.352600
      5 C17         -6.7000    -1.3080    -2.9160 ca         1 BXG      -0.189000
      6 C20         -8.0120    -2.5210    -0.8890 c3         1 BXG       0.244700
      7 C21         -4.7600    -0.9850    -1.5250 ca         1 BXG      -0.163000
      8 C24         -2.2140     0.7380    -3.5730 ca         1 BXG      -0.230300
      9 C02          1.3970     0.0000     0.0000 ca         1 BXG       0.049400
     10 C03          2.0840     0.0000     1.1980 ca         1 BXG      -0.131000
     11 C04          1.3920     0.0020     2.3950 ca         1 BXG       0.022000
     12 C05          0.0080     0.0020     2.4020 ca         1 BXG      -0.461200
     13 C09         -0.6910     0.0010     1.2130 ca         1 BXG       0.015000
     14 C11         -0.7430     0.0060    -1.2770 c          1 BXG       0.581700
     15 C14         -4.1100    -0.3600    -2.5970 ca         1 BXG      -0.118300
     16 C16         -6.0880    -0.7070    -3.9710 ca         1 BXG      -0.088300
     17 C18         -6.0440    -1.4520    -1.6910 ca         1 BXG       0.163100
     18 C23         -2.9360     0.8450    -4.7550 ca         1 BXG       0.417200
     19 N06         -0.7230     0.0030     3.6890 no         1 BXG       1.049200
     20 N22         -4.1620     0.3870    -4.8600 nb         1 BXG      -0.573000
     21 O07         -1.9420     0.0030     3.6970 o          1 BXG      -0.446500
     22 O08         -0.1080     0.0040     4.7390 o          1 BXG      -0.446500
     23 O19         -6.6800    -2.0590    -0.6530 os         1 BXG      -0.307900
     24 O25         -0.1380     0.0050    -2.3310 o          1 BXG      -0.623100
     25 H1          -2.5880    -0.0390    -0.4060 hn         1 BXG       0.180500
     26 H2          -7.7100    -1.6830    -3.0270 ha         1 BXG       0.122000
     27 H3          -8.6400    -1.6830    -1.1670 h1         1 BXG      -0.000967
     28 H4          -8.0050    -3.2490    -1.6920 h1         1 BXG      -0.000967
     29 H5          -8.4000    -2.9800     0.0120 h1         1 BXG      -0.000967
     30 H6          -4.2560    -1.0990    -0.5720 ha         1 BXG       0.115000
     31 H7          -1.2030     1.1250    -3.5170 ha         1 BXG       0.160000
     32 H9           3.1670     0.0000     1.1990 ha         1 BXG       0.130000
     33 H10          1.9360     0.0020     3.3320 ha         1 BXG       0.136000
     34 H11         -1.7750     0.0010     1.2210 ha         1 BXG       0.132000
     35 H12         -6.6110    -0.6040    -4.9140 ha         1 BXG       0.117000
     36 H13         -2.4760     1.3190    -5.6130 h4         1 BXG      -0.018900
     37 Cl1          2.2670    -0.0020    -1.5030 cl         1 BXG       0.077600
@<TRIPOS>BOND
     1     1     9 ar  
     2     1    13 ar  
     3     1    14 1   
     4     2     3 1   
     5     2    14 1   
     6     2    25 1   
     7     3     8 ar  
     8     3    15 ar  
     9     4    15 ar  
    10     4    16 ar  
    11     4    20 ar  
    12     5    16 ar  
    13     5    17 ar  
    14     5    26 1   
    15     6    23 1   
    16     6    27 1   
    17     6    28 1   
    18     6    29 1   
    19     7    15 ar  
    20     7    17 ar  
    21     7    30 1   
    22     8    18 ar  
    23     8    31 1   
    24     9    10 ar  
    25     9    37 1   
    26    10    11 ar  
    27    10    32 1   
    28    11    12 ar  
    29    11    33 1   
    30    12    13 ar  
    31    12    19 1   
    32    13    34 1   
    33    14    24 2   
    34    16    35 1   
    35    17    23 1   
    36    18    20 ar  
    37    18    36 1   
    38    19    21 1   
    39    19    22 1   
@<TRIPOS>SUBSTRUCTURE
     1 BXG         1 TEMP              0 ****  ****    0 ROOT
