@<TRIPOS>MOLECULE
molecule
   37    39     1     0     0
SMALL
bcc


@<TRIPOS>ATOM
      1 C10          0.0000     0.0000     0.0000 ca         1 BXG      -0.154600
      2 N12         -2.0900     0.0120    -1.2730 ns         1 BXG      -0.459100
      3 C13         -2.7890     0.1340    -2.4690 ca         1 BXG       0.083600
      4 C15         -4.7770    -0.2170    -3.8370 ca         1 BXG       0.403600
      5 C17         -6.7000    -1.3080    -2.9160 ca         1 BXG      -0.196000
      6 C20         -8.0120    -2.5210    -0.8890 c3         1 BXG       0.127700
      7 C21         -4.7600    -0.9850    -1.5250 ca         1 BXG      -0.168000
      8 C24         -2.2140     0.7380    -3.5730 ca         1 BXG      -0.260300
      9 C02          1.3970     0.0000     0.0000 ca         1 BXG       0.111400
     10 C03          2.0840     0.0000     1.1980 ca         1 BXG      -0.140000
     11 C04          1.3920     0.0020     2.3950 ca         1 BXG      -0.040000
     12 C05          0.0080     0.0020     2.4020 ca         1 BXG      -0.166200
     13 C09         -0.6910     0.0010     1.2130 ca         1 BXG      -0.040000
     14 C11         -0.7430     0.0060    -1.2770 c          1 BXG       0.673700
     15 C14         -4.1100    -0.3600    -2.5970 ca         1 BXG      -0.136300
     16 C16         -6.0880    -0.7070    -3.9710 ca         1 BXG      -0.122300
     17 C18         -6.0440    -1.4520    -1.6910 ca         1 BXG       0.146100
     18 C23         -2.9360     0.8450    -4.7550 ca         1 BXG       0.438200
     19 N06         -0.7230     0.0030     3.6890 no         1 BXG       0.294200
     20 N22         -4.1620     0.3870    -4.8600 nb         1 BXG      -0.689000
     21 O07         -1.9420     0.0030     3.6970 o          1 BXG      -0.198000
     22 O08         -0.1080     0.0040     4.7390 o          1 BXG      -0.198000
     23 O19         -6.6800    -2.0590    -0.6530 os         1 BXG      -0.327900
     24 O25         -0.1380     0.0050    -2.3310 o          1 BXG      -0.563100
     25 H1          -2.5880    -0.0390    -0.4060 hn         1 BXG       0.333500
     26 H2          -7.7100    -1.6830    -3.0270 ha         1 BXG       0.141000
     27 H3          -8.6400    -1.6830    -1.1670 h1         1 BXG       0.043700
     28 H4          -8.0050    -3.2490    -1.6920 h1         1 BXG       0.043700
     29 H5          -8.4000    -2.9800     0.0120 h1         1 BXG       0.043700
     30 H6          -4.2560    -1.0990    -0.5720 ha         1 BXG       0.136000
     31 H7          -1.2030     1.1250    -3.5170 ha         1 BXG       0.176000
     32 H9           3.1670     0.0000     1.1990 ha         1 BXG       0.167000
     33 H10          1.9360     0.0020     3.3320 ha         1 BXG       0.176000
     34 H11         -1.7750     0.0010     1.2210 ha         1 BXG       0.166000
     35 H12         -6.6110    -0.6040    -4.9140 ha         1 BXG       0.153000
     36 H13         -2.4760     1.3190    -5.6130 h4         1 BXG       0.028100
     37 Cl1          2.2670    -0.0020    -1.5030 cl         1 BXG      -0.027400
@<TRIPOS>BOND
     1    23     6 1
     2    23    17 1
     3     5    17 ar
     4     5    16 ar
     5    17     7 ar
     6    16     4 ar
     7     7    15 ar
     8     4    15 ar
     9     4    20 ar
    10    15     3 ar
    11    20    18 ar
    12    18     8 ar
    13     3     8 ar
    14     3     2 1
    15     2    14 1
    16     9    10 ar
    17     9     1 ar
    18    24    14 2
    19    14     1 1
    20    10    11 ar
    21     1    13 ar
    22    11    12 ar
    23    13    12 ar
    24    12    19 1
    25    19    22 1
    26    19    21 1
    27     2    25 1
    28     5    26 1
    29     6    27 1
    30     6    28 1
    31     6    29 1
    32     7    30 1
    33     8    31 1
    34    10    32 1
    35    11    33 1
    36    13    34 1
    37    16    35 1
    38    18    36 1
    39     9    37 1
@<TRIPOS>SUBSTRUCTURE
     1 BXG         1 TEMP              0 ****  ****    0 ROOT
