@<TRIPOS>MOLECULE
BXJ
   82    87     1     0     0
SMALL
bcc


@<TRIPOS>ATOM
      1 C15          0.0000     0.0000     0.0000 ce         1 BXJ       0.369200
      2 C18          1.6140     0.0010     2.3010 c2         1 BXJ       0.510200
      3 C20          1.4850     0.0000     0.0000 c          1 BXJ       0.597200
      4 C17          0.1060     0.0020     2.3790 c3         1 BXJ       0.077500
      5 C22         -0.3110     1.2170     3.1670 ca         1 BXJ      -0.073300
      6 C23         -0.2510     1.1990     4.5460 ca         1 BXJ      -0.124300
      7 C24         -0.6350     2.3190     5.2710 ca         1 BXJ      -0.077400
      8 C25         -1.0770     3.4560     4.6060 ca         1 BXJ      -0.091000
      9 C26         -1.1340     3.4670     3.2260 ca         1 BXJ      -0.080000
     10 C13         -4.0640    -1.0440    -0.2430 ca         1 BXJ      -0.010000
     11 C12         -2.7050    -0.9170    -0.2460 ca         1 BXJ      -0.179000
     12 C27         -0.7470     2.3510     2.5060 ca         1 BXJ      -0.089000
     13 C29         -1.4960     2.9750     7.3890 c          1 BXJ       0.591700
     14 C11         -2.0730    -0.1270    -1.2050 ca         1 BXJ       0.059600
     15 C10         -2.8200     0.5390    -2.1650 ca         1 BXJ      -0.236000
     16 C31         -0.2880     2.4460     9.4990 ca         1 BXJ      -0.026500
     17 C32         -0.1680     2.5290    10.8680 ca         1 BXJ      -0.165500
     18 C30         -1.3650     3.0610     8.8550 ca         1 BXJ      -0.198600
     19 C33         -1.1220     3.2170    11.6110 ca         1 BXJ       0.051600
     20 C34         -2.2000     3.8250    10.9730 ca         1 BXJ      -0.165500
     21 C01         -6.0350    -2.9600    -1.1910 c3         1 BXJ      -0.002000
     22 C02         -6.4580    -3.8780    -2.3430 c3         1 BXJ       0.198900
     23 C04         -8.6340    -2.8740    -2.4730 c3         1 BXJ       0.198900
     24 C05         -8.3230    -1.9030    -1.3270 c3         1 BXJ      -0.002000
     25 C08         -4.8330    -0.3830    -1.2070 ca         1 BXJ      -0.265600
     26 C09         -4.2020     0.4190    -2.1720 ca         1 BXJ       0.125600
     27 C35         -2.3190     3.7570     9.6040 ca         1 BXJ      -0.026500
     28 C37         -0.9060     1.9600    13.5930 c3         1 BXJ       0.135300
     29 C38         -0.6270     2.0890    15.0910 c3         1 BXJ      -0.026400
     30 C39         -1.7570     2.8850    15.7500 c3         1 BXJ      -0.028400
     31 C40         -1.8630     4.2560    15.0760 c3         1 BXJ      -0.026400
     32 C41         -2.1080     4.0650    13.5770 c3         1 BXJ       0.135300
     33 C43          0.2290    -0.0370     5.2630 c3         1 BXJ       0.048200
     34 N06         -6.8620    -1.7440    -1.2390 n          1 BXJ      -0.149800
     35 N14         -0.6850    -0.0060    -1.1970 nu         1 BXJ      -0.226600
     36 N16         -0.6570     0.0010     1.1220 n2         1 BXJ      -0.588900
     37 N19          2.1930     0.0000     1.1400 ne         1 BXJ      -0.568100
     38 N28         -0.5770     2.3040     6.6680 ns         1 BXJ      -0.042100
     39 N36         -0.9990     3.2970    12.9940 nh         1 BXJ      -0.352000
     40 N44         -4.9570     1.0880    -3.1270 nv         1 BXJ      -0.427200
     41 O03         -7.8730    -4.0720    -2.2950 os         1 BXJ      -0.406600
     42 O21          2.0750    -0.0000    -1.0610 o          1 BXJ      -0.527100
     43 O42         -2.4350     3.5110     6.8290 o          1 BXJ      -0.635100
     44 O45         -7.0020     0.4730    -1.1680 o          1 BXJ      -0.659100
     45 H1           2.2030    -0.1360     3.1990 h4         1 BXJ      -0.003200
     46 H2          -0.1900    -0.8780     2.9380 h1         1 BXJ       0.067700
     47 H3          -1.3790     4.3310     5.1680 ha         1 BXJ       0.140000
     48 H4          -1.4770     4.3540     2.7060 ha         1 BXJ       0.108000
     49 H5          -4.5480    -1.6600     0.5060 ha         1 BXJ       0.106000
     50 H6          -2.1150    -1.4330     0.5020 ha         1 BXJ       0.136000
     51 H7          -0.7930     2.3630     1.4240 ha         1 BXJ       0.116000
     52 H8          -2.3250     1.1540    -2.9080 ha         1 BXJ       0.116000
     53 H9           0.4560     1.9110     8.9210 ha         1 BXJ       0.111500
     54 H10          0.6680     2.0550    11.3670 ha         1 BXJ       0.123500
     55 H11         -2.9400     4.3620    11.5550 ha         1 BXJ       0.123500
     56 H13         -4.9910    -2.6940    -1.3030 h1         1 BXJ       0.042700
     57 H14         -6.1880    -3.4200    -3.2870 h1         1 BXJ       0.013700
     58 H15         -5.9590    -4.8350    -2.2440 h1         1 BXJ       0.013700
     59 H16         -8.3680    -2.4150    -3.4170 h1         1 BXJ       0.013700
     60 H17         -9.6900    -3.1140    -2.4650 h1         1 BXJ       0.013700
     61 H18         -8.7010    -2.3060    -0.3950 h1         1 BXJ       0.042700
     62 H19         -8.7820    -0.9430    -1.5290 h1         1 BXJ       0.042700
     63 H20         -3.1580     4.2300     9.1080 ha         1 BXJ       0.111500
     64 H21         -0.0990     1.4110    13.1230 h1         1 BXJ       0.020200
     65 H22         -1.8420     1.4340    13.4450 h1         1 BXJ       0.020200
     66 H23          0.3130     2.6070    15.2400 hc         1 BXJ       0.021950
     67 H24         -0.5760     1.1020    15.5350 hc         1 BXJ       0.021950
     68 H25         -2.6920     2.3510    15.6310 hc         1 BXJ       0.015700
     69 H26         -1.5400     3.0170    16.8030 hc         1 BXJ       0.015700
     70 H27         -0.9400     4.8030    15.2240 hc         1 BXJ       0.021950
     71 H28         -2.6900     4.8070    15.5080 hc         1 BXJ       0.021950
     72 H29         -3.0350     3.5250    13.4300 h1         1 BXJ       0.020200
     73 H30         -2.1670     5.0330    13.0950 h1         1 BXJ       0.020200
     74 H31          0.2450    -0.8720     4.5730 hc         1 BXJ       0.011033
     75 H32          1.2280     0.1340     5.6460 hc         1 BXJ       0.011033
     76 H33         -0.4390    -0.2600     6.0860 hc         1 BXJ       0.011033
     77 H34         -0.1830     0.0510    -2.0610 hn         1 BXJ       0.300800
     78 H35          0.0830     1.7100     7.1310 hn         1 BXJ       0.175500
     79 H36         -5.9540     1.0020    -3.1270 hn         1 BXJ       0.277300
     80 H37         -4.5040     1.6580    -3.8140 hn         1 BXJ       0.277300
     81 C07         -6.2990    -0.5190    -1.2040 c          1 BXJ       0.631700
     82 H12         -6.1890    -3.4670    -0.2470 h1         1 BXJ       0.042700
@<TRIPOS>BOND
     1     1     3 1   
     2     1    35 1   
     3     1    36 2   
     4     2     4 1   
     5     2    37 2   
     6     2    45 1   
     7     3    37 1   
     8     3    42 2   
     9     4     5 1   
    10     4    36 1   
    11     4    46 1   
    12     5     6 ar  
    13     5    12 ar  
    14     6     7 ar  
    15     6    33 1   
    16     7     8 ar  
    17     7    38 1   
    18     8     9 ar  
    19     8    47 1   
    20     9    12 ar  
    21     9    48 1   
    22    10    11 ar  
    23    10    25 ar  
    24    10    49 1   
    25    11    14 ar  
    26    11    50 1   
    27    12    51 1   
    28    13    18 1   
    29    13    38 1   
    30    13    43 2   
    31    14    15 ar  
    32    14    35 1   
    33    15    26 ar  
    34    15    52 1   
    35    16    17 ar  
    36    16    18 ar  
    37    16    53 1   
    38    17    19 ar  
    39    17    54 1   
    40    18    27 ar  
    41    19    20 ar  
    42    19    39 1   
    43    20    27 ar  
    44    20    55 1   
    45    21    22 1   
    46    21    34 1   
    47    21    56 1   
    48    21    82 1   
    49    22    41 1   
    50    22    57 1   
    51    22    58 1   
    52    23    24 1   
    53    23    41 1   
    54    23    59 1   
    55    23    60 1   
    56    24    34 1   
    57    24    61 1   
    58    24    62 1   
    59    25    26 ar  
    60    25    81 1   
    61    26    40 1   
    62    27    63 1   
    63    28    29 1   
    64    28    39 1   
    65    28    64 1   
    66    28    65 1   
    67    29    30 1   
    68    29    66 1   
    69    29    67 1   
    70    30    31 1   
    71    30    68 1   
    72    30    69 1   
    73    31    32 1   
    74    31    70 1   
    75    31    71 1   
    76    32    39 1   
    77    32    72 1   
    78    32    73 1   
    79    33    74 1   
    80    33    75 1   
    81    33    76 1   
    82    34    81 1   
    83    35    77 1   
    84    38    78 1   
    85    40    79 1   
    86    40    80 1   
    87    44    81 2   
@<TRIPOS>SUBSTRUCTURE
     1 BXJ         1 TEMP              0 ****  ****    0 ROOT
