@<TRIPOS>MOLECULE
molecule
   37    36     1     0     0
SMALL
bcc


@<TRIPOS>ATOM
      1 OAC          0.0000     0.0000     0.0000 o          1 BXK      -0.888800
      2 CAO          1.3430     0.0000     0.0000 c          1 BXK       0.893600
      3 OAG          1.9470     0.0000     1.0460 o          1 BXK      -0.888800
      4 CAJ          2.0950    -0.0010    -1.3050 c3         1 BXK      -0.183400
      5 CAK          3.6000    -0.0010    -1.0270 c3         1 BXK      -0.047400
      6 CAU          4.3650    -0.0020    -2.3520 c3         1 BXK       0.057100
      7 CAQ          5.8420     0.1210    -2.0800 c          1 BXK       0.891600
      8 OAI          6.3290     1.2410    -1.5220 o          1 BXK      -0.859800
      9 OAE          6.5860    -0.7870    -2.3630 o          1 BXK      -0.859800
     10 OAN          4.1050    -1.2440    -3.0600 os         1 BXK      -0.426900
     11 CAR          4.1410    -1.1990    -4.4040 c          1 BXK       0.767100
     12 OAF          4.3830    -0.1520    -4.9720 o          1 BXK      -0.638000
     13 N            3.9090    -2.3160    -5.1220 ns         1 BXK      -0.562900
     14 CA           3.9480    -2.2680    -6.5860 c3         1 BXK       0.031700
     15 C            5.3700    -2.4350    -7.0560 c          1 BXK       0.880600
     16 O            6.2600    -2.5800    -6.2510 o          1 BXK      -0.849300
     17 OXT          5.6490    -2.4240    -8.3690 o          1 BXK      -0.849300
     18 CB           3.0870    -3.3960    -7.1570 c3         1 BXK      -0.070400
     19 CG           1.6230    -3.1610    -6.7790 c3         1 BXK      -0.084700
     20 CD2          1.1130    -1.8960    -7.4740 c3         1 BXK      -0.085600
     21 CD1          0.7830    -4.3610    -7.2220 c3         1 BXK      -0.085600
     22 H2           1.8330     0.8830    -1.8740 hc         1 BXK       0.027700
     23 H3           1.8330    -0.8860    -1.8730 hc         1 BXK       0.027700
     24 H4           3.8620    -0.8850    -0.4580 hc         1 BXK       0.056200
     25 H5           3.8620     0.8830    -0.4590 hc         1 BXK       0.056200
     26 H6           4.0380     0.8340    -2.9580 h1         1 BXK       0.052700
     27 H8           3.7570    -3.1880    -4.6540 hn         1 BXK       0.295500
     28 H9           3.5650    -1.3130    -6.9260 h1         1 BXK       0.068700
     29 H11          3.4170    -4.3440    -6.7500 hc         1 BXK       0.041700
     30 H12          3.1830    -3.4130    -8.2360 hc         1 BXK       0.041700
     31 H13          1.5420    -3.0400    -5.7050 hc         1 BXK       0.067700
     32 H14          1.4030    -1.0260    -6.8980 hc         1 BXK       0.020700
     33 H15          1.5420    -1.8320    -8.4660 hc         1 BXK       0.020700
     34 H16          0.0330    -1.9360    -7.5480 hc         1 BXK       0.020700
     35 H17          0.8280    -4.4550    -8.3000 hc         1 BXK       0.020700
     36 H18          1.1720    -5.2620    -6.7640 hc         1 BXK       0.020700
     37 H19         -0.2450    -4.2140    -6.9140 hc         1 BXK       0.020700
@<TRIPOS>BOND
     1     9     7 1
     2     3     2 1
     3     7     8 1
     4     7     6 1
     5     2     1 1
     6     2     4 1
     7     5     4 1
     8     5     6 1
     9     6    10 1
    10    12    11 2
    11    10    11 1
    12    11    13 1
    13    13    14 1
    14    14    15 1
    15    14    18 1
    16    16    15 1
    17    15    17 1
    18    20    19 1
    19    18    19 1
    20    19    21 1
    21     4    22 1
    22     4    23 1
    23     5    24 1
    24     5    25 1
    25     6    26 1
    26    13    27 1
    27    14    28 1
    28    18    29 1
    29    18    30 1
    30    19    31 1
    31    20    32 1
    32    20    33 1
    33    20    34 1
    34    21    35 1
    35    21    36 1
    36    21    37 1
@<TRIPOS>SUBSTRUCTURE
     1 BXK         1 TEMP              0 ****  ****    0 ROOT
