@<TRIPOS>MOLECULE
molecule
   48    49     1     0     0
SMALL
bcc


@<TRIPOS>ATOM
      1 C1           0.0000     0.0000     0.0000 ca         1 BXL      -0.113000
      2 N1          -0.6950    -0.0050     3.6110 ns         1 BXL      -0.482100
      3 O1           0.8860     1.1960     4.6030 o          1 BXL      -0.587100
      4 C2           1.3830     0.0000     0.0000 ca         1 BXL      -0.144000
      5 N2           1.4840     8.0190     9.5250 ns         1 BXL      -0.472100
      6 O2           0.3060     7.4640     7.7290 o          1 BXL      -0.591100
      7 C3           2.0780     0.0000     1.1950 ca         1 BXL      -0.113000
      8 N3           1.8070    10.0950    11.3740 nv         1 BXL      -0.930200
      9 C4           1.3920    -0.0020     2.3950 ca         1 BXL      -0.143000
     10 C5           0.0040    -0.0020     2.3980 ca         1 BXL       0.052600
     11 C6          -0.6910    -0.0010     1.1960 ca         1 BXL      -0.143000
     12 C7          -0.2030     0.6640     4.6730 c          1 BXL       0.660100
     13 C8          -1.0040     0.7520     5.9460 c3         1 BXL      -0.121200
     14 C9          -0.2360     1.5480     6.9700 c2         1 BXL      -0.155200
     15 C10         -0.7870     2.5940     7.5350 c2         1 BXL      -0.165200
     16 C11         -0.0180     3.3890     8.5580 c3         1 BXL      -0.048200
     17 C12          0.0240     4.8580     8.1340 c3         1 BXL      -0.063400
     18 C13          0.8040     5.6660     9.1740 c3         1 BXL      -0.159400
     19 C14          0.8460     7.1140     8.7560 c          1 BXL       0.657100
     20 C15          1.6250     9.3400     9.0810 ca         1 BXL      -0.018400
     21 C16          1.5980     9.6250     7.7260 ca         1 BXL      -0.093000
     22 C17          1.7360    10.9300     7.2900 ca         1 BXL      -0.165000
     23 C18          1.9030    11.9540     8.2040 ca         1 BXL      -0.102000
     24 C19          1.9300    11.6790     9.5590 ca         1 BXL      -0.194000
     25 C20          1.7860    10.3750    10.0050 ca         1 BXL       0.170600
     26 H1          -0.5410     0.0000    -0.9380 ha         1 BXL       0.131500
     27 HN1         -1.5410    -0.5320     3.7000 hn         1 BXL       0.322500
     28 H2           1.9240     0.0010    -0.9390 ha         1 BXL       0.129000
     29 HN2          1.7730     7.7710    10.4510 hn         1 BXL       0.313500
     30 H3           3.1610     0.0000     1.1920 ha         1 BXL       0.131500
     31 HN3          1.7030     9.1520    11.6940 hn         1 BXL       0.425300
     32 HN3A         1.9240    10.8380    12.0350 hn         1 BXL       0.425300
     33 H4           1.9370    -0.0020     3.3310 ha         1 BXL       0.146500
     34 H6          -1.7740    -0.0010     1.1960 ha         1 BXL       0.146500
     35 H8          -1.9500     1.2410     5.7440 hc         1 BXL       0.065700
     36 H8A         -1.1870    -0.2450     6.3270 hc         1 BXL       0.065700
     37 H9           0.7720     1.2550     7.2380 ha         1 BXL       0.141000
     38 H10         -1.7950     2.8870     7.2660 ha         1 BXL       0.124000
     39 H11         -0.5060     3.3050     9.5220 hc         1 BXL       0.045200
     40 H11A         0.9920     3.0040     8.6300 hc         1 BXL       0.045200
     41 H12         -0.9860     5.2430     8.0610 hc         1 BXL       0.063700
     42 H12A         0.5130     4.9420     7.1710 hc         1 BXL       0.063700
     43 H13          0.3150     5.5820    10.1370 hc         1 BXL       0.059200
     44 H13A         1.8140     5.2810     9.2470 hc         1 BXL       0.059200
     45 H16          1.4680     8.8250     7.0070 ha         1 BXL       0.172000
     46 H17          1.7150    11.1500     6.2290 ha         1 BXL       0.132000
     47 H18          2.0130    12.9750     7.8570 ha         1 BXL       0.127000
     48 H19          2.0610    12.4840    10.2720 ha         1 BXL       0.128000
@<TRIPOS>BOND
     1     4     1 ar
     2     1    11 ar
     3     1    26 1
     4    10     2 1
     5     2    12 1
     6     2    27 1
     7    12     3 2
     8     7     4 ar
     9     4    28 1
    10     5    20 1
    11     5    19 1
    12     5    29 1
    13    19     6 2
    14     7     9 ar
    15     7    30 1
    16    25     8 1
    17     8    31 1
    18     8    32 1
    19     9    10 ar
    20     9    33 1
    21    10    11 ar
    22    11    34 1
    23    12    13 1
    24    13    14 1
    25    13    35 1
    26    13    36 1
    27    14    15 2
    28    14    37 1
    29    15    16 1
    30    15    38 1
    31    17    16 1
    32    16    39 1
    33    16    40 1
    34    17    18 1
    35    17    41 1
    36    17    42 1
    37    18    19 1
    38    18    43 1
    39    18    44 1
    40    21    20 ar
    41    20    25 ar
    42    21    22 ar
    43    21    45 1
    44    22    23 ar
    45    22    46 1
    46    23    24 ar
    47    23    47 1
    48    25    24 ar
    49    24    48 1
@<TRIPOS>SUBSTRUCTURE
     1 BXL         1 TEMP              0 ****  ****    0 ROOT
