@<TRIPOS>MOLECULE
BXL
   48    51     1     0     0
SMALL
bcc


@<TRIPOS>ATOM
      1 C1           0.0000     0.0000     0.0000 ca         1 BXL      -0.084000
      2 N1          -0.6950    -0.0050     3.6110 ns         1 BXL       0.120000
      3 O1           0.8860     1.1960     4.6030 o          1 BXL      -0.383000
      4 C2           1.3830     0.0000     0.0000 ca         1 BXL      -0.111000
      5 N2           1.4840     8.0190     9.5250 ns         1 BXL       0.120000
      6 O2           0.3060     7.4640     7.7290 o          1 BXL      -0.390000
      7 C3           2.0780     0.0000     1.1950 ca         1 BXL      -0.084000
      8 N3           1.8070    10.0950    11.3740 nv         1 BXL       0.029000
      9 C4           1.3920    -0.0020     2.3950 ca         1 BXL      -0.115000
     10 C5           0.0040    -0.0020     2.3980 ca         1 BXL      -0.091000
     11 C6          -0.6910    -0.0010     1.1960 ca         1 BXL      -0.115000
     12 C7          -0.2030     0.6640     4.6730 c2         1 BXL       0.169000
     13 C8          -1.0040     0.7520     5.9460 DU         1 BXL      -0.011000
     14 C9          -0.2360     1.5480     6.9700 c2         1 BXL      -0.103000
     15 C10         -0.7870     2.5940     7.5350 c2         1 BXL      -0.168000
     16 C11         -0.0180     3.3890     8.5580 DU         1 BXL       0.000000
     17 C12          0.0240     4.8580     8.1340 c3         1 BXL      -0.126000
     18 C13          0.8040     5.6660     9.1740 c3         1 BXL      -0.127000
     19 C14          0.8460     7.1140     8.7560 c2         1 BXL       0.201000
     20 C15          1.6250     9.3400     9.0810 ca         1 BXL      -0.159000
     21 C16          1.5980     9.6250     7.7260 ca         1 BXL      -0.069000
     22 C17          1.7360    10.9300     7.2900 ca         1 BXL      -0.139000
     23 C18          1.9030    11.9540     8.2040 ca         1 BXL      -0.066000
     24 C19          1.9300    11.6790     9.5590 ca         1 BXL      -0.171000
     25 C20          1.7860    10.3750    10.0050 ca         1 BXL      -0.054000
     26 H1          -0.5410     0.0000    -0.9380 ha         1 BXL       0.103500
     27 HN1         -1.5400    -0.5320     3.7000 hn         1 BXL       0.081000
     28 H2           1.9240     0.0010    -0.9390 ha         1 BXL       0.103000
     29 HN2          1.7730     7.7710    10.4510 hn         1 BXL       0.074000
     30 H3           3.1610     0.0000     1.1920 ha         1 BXL       0.103500
     31 HN3          1.9240    10.8380    12.0350 hn         1 BXL       0.059500
     32 HN3A         1.7030     9.1520    11.6940 hn         1 BXL       0.059500
     33 H4           1.9370    -0.0020     3.3310 ha         1 BXL       0.125000
     34 H6          -1.7740    -0.0010     1.1960 ha         1 BXL       0.125000
     35 H8          -1.1870    -0.2450     6.3270 ha         1 BXL       0.066000
     36 H8A         -1.9500     1.2410     5.7440 ha         1 BXL       0.066000
     37 H9          -0.3750     1.8500     5.9380 DU         1 BXL       0.035000
     38 H10         -0.0150     3.3150     7.2950 DU         1 BXL       0.060000
     39 H11         -0.5060     3.3050     9.5220 ha         1 BXL       0.054000
     40 H11A         0.9920     3.0040     8.6300 ha         1 BXL       0.054000
     41 H12          0.5130     4.9420     7.1710 hc         1 BXL       0.080500
     42 H12A        -0.9860     5.2430     8.0610 hc         1 BXL       0.080500
     43 H13          1.8140     5.2810     9.2470 hc         1 BXL       0.067500
     44 H13A         0.3150     5.5820    10.1370 hc         1 BXL       0.067500
     45 H16          1.4680     8.8250     7.0070 ha         1 BXL       0.151000
     46 H17          1.7150    11.1500     6.2290 ha         1 BXL       0.106000
     47 H18          2.0130    12.9750     7.8570 ha         1 BXL       0.098000
     48 H19          2.0610    12.4840    10.2720 ha         1 BXL       0.107000
@<TRIPOS>BOND
     1     1     4 1   
     2     1    11 1   
     3     1    26 1   
     4     2    10 1   
     5     2    12 1   
     6     2    27 1   
     7     3    12 1   
     8     4     7 1   
     9     4    28 1   
    10     5    19 1   
    11     5    20 1   
    12     5    29 1   
    13     6    19 1   
    14     7     9 1   
    15     7    30 1   
    16     8    25 1   
    17     8    31 1   
    18     8    32 1   
    19     9    10 1   
    20     9    33 1   
    21    10    11 1   
    22    11    34 1   
    23    12    13 1   
    24    13    14 1   
    25    13    35 1   
    26    13    36 1   
    27    13    37 1   
    28    14    15 1   
    29    14    37 1   
    30    15    16 1   
    31    15    38 1   
    32    16    17 1   
    33    16    38 1   
    34    16    39 1   
    35    16    40 1   
    36    17    18 1   
    37    17    41 1   
    38    17    42 1   
    39    18    19 1   
    40    18    43 1   
    41    18    44 1   
    42    20    21 1   
    43    20    25 1   
    44    21    22 1   
    45    21    45 1   
    46    22    23 1   
    47    22    46 1   
    48    23    24 1   
    49    23    47 1   
    50    24    25 1   
    51    24    48 1   
@<TRIPOS>SUBSTRUCTURE
     1 BXL         1 TEMP              0 ****  ****    0 ROOT
