@<TRIPOS>MOLECULE
BXM
   80    84     1     0     0
SMALL
bcc


@<TRIPOS>ATOM
      1 C1           0.0000     0.0000     0.0000 ca         1 BXM      -0.025800
      2 C11         -0.7440    -0.0000    -1.2830 cc         1 BXM      -0.109200
      3 C12         -0.8310    -1.1820    -2.0520 cc         1 BXM      -0.023000
      4 C13         -1.5210    -1.1600    -3.2310 cd         1 BXM      -0.154200
      5 C14         -2.1320     0.0430    -3.6520 c          1 BXM       0.572700
      6 C17         -1.3520     1.1390    -1.7230 cd         1 BXM      -0.138400
      7 C2           1.3930     0.0000     0.0000 ca         1 BXM      -0.111300
      8 C21          4.1510    -0.5630     2.2330 c          1 BXM       0.589700
      9 C23          5.6260    -0.4910     2.2790 ca         1 BXM      -0.172600
     10 C24          6.3230    -1.0730     3.3390 ca         1 BXM      -0.053500
     11 C26          7.7010    -1.0030     3.3760 ca         1 BXM      -0.118000
     12 C28          8.3910    -0.3560     2.3670 ca         1 BXM      -0.047300
     13 C29          7.7050     0.2240     1.3140 ca         1 BXM      -0.118000
     14 C3           2.1480     0.0000    -1.3030 c3         1 BXM       0.053200
     15 C31          6.3290     0.1550     1.2610 ca         1 BXM      -0.053500
     16 C33          9.8950    -0.2820     2.4140 c3         1 BXM      -0.019700
     17 C34         10.3300     0.4470     3.6870 c3         1 BXM       0.005567
     18 C38         10.4750    -1.6980     2.4130 c3         1 BXM       0.005567
     19 C4           2.0810     0.0000     1.2030 ca         1 BXM      -0.081400
     20 C42         10.4070     0.4800     1.1900 c3         1 BXM       0.005567
     21 C46         -1.1690    -2.3090    -5.3220 ca         1 BXM       0.529200
     22 C49         -0.9160    -3.4270    -7.3240 ca         1 BXM       0.512200
     23 C5           1.3820     0.0000     2.4040 ca         1 BXM      -0.104000
     24 C50         -0.2980    -2.3150    -7.9000 ca         1 BXM      -0.346900
     25 C51         -0.1140    -1.1600    -7.1250 ca         1 BXM      -0.018000
     26 C52         -0.5600    -1.1640    -5.8320 ca         1 BXM      -0.281300
     27 C7           0.0000    -0.0010     2.4030 ca         1 BXM      -0.084000
     28 C71          0.1570    -2.3550    -9.3040 c          1 BXM       0.632700
     29 C81          3.6240    -1.7270    -8.8630 c3         1 BXM       0.198400
     30 C82          2.2090    -1.1840    -8.6350 c3         1 BXM      -0.002000
     31 C84          1.7340    -1.6870   -11.0620 c3         1 BXM      -0.002000
     32 C85          3.1720    -2.2050   -11.1720 c3         1 BXM       0.198400
     33 C9          -0.6930     0.0060     1.2100 ca         1 BXM      -0.105000
     34 N16         -2.0310     1.1540    -2.8980 n          1 BXM       0.129000
     35 N19          3.4810     0.0000     1.2080 ns         1 BXM      -0.039100
     36 N47         -1.6230    -2.3170    -4.0130 nu         1 BXM      -0.281700
     37 N48         -1.3260    -3.3900    -6.0740 nb         1 BXM      -0.659000
     38 N83          1.3190    -1.7670    -9.6520 n          1 BXM      -0.155800
     39 O15         -2.7510     0.0750    -4.7030 o          1 BXM      -0.688500
     40 O22          3.5410    -1.1310     3.1180 o          1 BXM      -0.637100
     41 O72         -0.5150    -2.9200   -10.1450 o          1 BXM      -0.648100
     42 O86          3.9950    -1.5150   -10.2280 os         1 BXM      -0.407600
     43 H1          -0.3560    -2.0940    -1.7120 ha         1 BXM       0.122000
     44 H2          -1.2840     2.0450    -1.1320 h4         1 BXM       0.137000
     45 H3           5.7840    -1.5800     4.1310 ha         1 BXM       0.112500
     46 H4           8.2430    -1.4540     4.1980 ha         1 BXM       0.119500
     47 H5           8.2520     0.7270     0.5250 ha         1 BXM       0.119500
     48 H6           1.4610     0.1890    -2.1190 hc         1 BXM       0.011367
     49 H7           2.6220    -0.9640    -1.4460 hc         1 BXM       0.011367
     50 H8           2.9050     0.7750    -1.2820 hc         1 BXM       0.011367
     51 H9           5.7930     0.6100     0.4360 ha         1 BXM       0.112500
     52 H10         10.1400    -0.1840     4.5470 hc         1 BXM       0.008478
     53 H11         11.3880     0.6720     3.6310 hc         1 BXM       0.008478
     54 H12          9.7690     1.3680     3.7850 hc         1 BXM       0.008478
     55 H13         11.5450    -1.6490     2.2470 hc         1 BXM       0.008478
     56 H14         10.0130    -2.2760     1.6220 hc         1 BXM       0.008478
     57 H15         10.2790    -2.1700     3.3680 hc         1 BXM       0.008478
     58 H16         11.4880     0.5340     1.2240 hc         1 BXM       0.008478
     59 H17          9.9950     1.4820     1.1910 hc         1 BXM       0.008478
     60 H18         10.0990    -0.0360     0.2890 hc         1 BXM       0.008478
     61 H19         -1.0610    -4.3250    -7.9110 h4         1 BXM      -0.007900
     62 H20          1.9220    -0.0020     3.3430 ha         1 BXM       0.152000
     63 H21          0.3620    -0.2820    -7.5440 ha         1 BXM       0.113000
     64 H22         -0.4340    -0.2880    -5.2080 ha         1 BXM       0.124000
     65 H23         -3.7190     2.1990    -3.5590 h1         1 BXM       0.027700
     66 H24         -2.5960     3.1410    -2.5680 h1         1 BXM       0.027700
     67 H25         -2.1830     2.7500    -4.2420 h1         1 BXM       0.027700
     68 H26         -0.5410     0.0010     3.3420 ha         1 BXM       0.107000
     69 H28          4.3190    -1.2050    -8.2160 h1         1 BXM       0.014450
     70 H29          1.8660    -1.4670    -7.6470 h1         1 BXM       0.041200
     71 H30          2.2130    -0.1050    -8.7310 h1         1 BXM       0.041200
     72 H31          1.6910    -0.6580   -11.3960 h1         1 BXM       0.041200
     73 H32          1.0790    -2.3010   -11.6690 h1         1 BXM       0.041200
     74 H33          3.5440    -2.0260   -12.1740 h1         1 BXM       0.014450
     75 H34          3.1900    -3.2670   -10.9580 h1         1 BXM       0.014450
     76 H35         -1.7770     0.0050     1.2130 ha         1 BXM       0.107000
     77 H36          3.9840     0.4350     0.4600 hn         1 BXM       0.178500
     78 H37         -2.0580    -3.1370    -3.6400 hn         1 BXM       0.291800
     79 C60         -2.6740     2.3920    -3.3460 c3         1 BXM       0.047300
     80 H27          3.6440    -2.7870    -8.6440 h1         1 BXM       0.014450
@<TRIPOS>BOND
     1     1     2 1   
     2     1     7 ar  
     3     1    33 ar  
     4     2     3 1   
     5     2     6 2   
     6     3     4 2   
     7     3    43 1   
     8     4     5 1   
     9     4    36 1   
    10     5    34 1   
    11     5    39 2   
    12     6    34 1   
    13     6    44 1   
    14     7    14 1   
    15     7    19 ar  
    16     8     9 1   
    17     8    35 1   
    18     8    40 2   
    19     9    10 ar  
    20     9    15 ar  
    21    10    11 ar  
    22    10    45 1   
    23    11    12 ar  
    24    11    46 1   
    25    12    13 ar  
    26    12    16 1   
    27    13    15 ar  
    28    13    47 1   
    29    14    48 1   
    30    14    49 1   
    31    14    50 1   
    32    15    51 1   
    33    16    17 1   
    34    16    18 1   
    35    16    20 1   
    36    17    52 1   
    37    17    53 1   
    38    17    54 1   
    39    18    55 1   
    40    18    56 1   
    41    18    57 1   
    42    19    23 ar  
    43    19    35 1   
    44    20    58 1   
    45    20    59 1   
    46    20    60 1   
    47    21    26 ar  
    48    21    36 1   
    49    21    37 ar  
    50    22    24 ar  
    51    22    37 ar  
    52    22    61 1   
    53    23    27 ar  
    54    23    62 1   
    55    24    25 ar  
    56    24    28 1   
    57    25    26 ar  
    58    25    63 1   
    59    26    64 1   
    60    27    33 ar  
    61    27    68 1   
    62    28    38 1   
    63    28    41 2   
    64    29    30 1   
    65    29    42 1   
    66    29    69 1   
    67    29    80 1   
    68    30    38 1   
    69    30    70 1   
    70    30    71 1   
    71    31    32 1   
    72    31    38 1   
    73    31    72 1   
    74    31    73 1   
    75    32    42 1   
    76    32    74 1   
    77    32    75 1   
    78    33    76 1   
    79    34    79 1   
    80    35    77 1   
    81    36    78 1   
    82    65    79 1   
    83    66    79 1   
    84    67    79 1   
@<TRIPOS>SUBSTRUCTURE
     1 BXM         1 TEMP              0 ****  ****    0 ROOT
