@<TRIPOS>MOLECULE
molecule
   80    84     1     0     0
SMALL
bcc


@<TRIPOS>ATOM
      1 C1           0.0000     0.0000     0.0000 ca         1 BXM      -0.032800
      2 C11         -0.7440    -0.0000    -1.2830 cc         1 BXM      -0.131200
      3 C12         -0.8310    -1.1820    -2.0520 cc         1 BXM      -0.051000
      4 C13         -1.5210    -1.1600    -3.2310 cd         1 BXM       0.002800
      5 C14         -2.1320     0.0430    -3.6520 c          1 BXM       0.665700
      6 C17         -1.3520     1.1390    -1.7230 cd         1 BXM       0.007600
      7 C2           1.3930     0.0000     0.0000 ca         1 BXM      -0.105300
      8 C21          4.1510    -0.5630     2.2330 c          1 BXM       0.677700
      9 C23          5.6260    -0.4910     2.2790 ca         1 BXM      -0.158600
     10 C24          6.3230    -1.0730     3.3390 ca         1 BXM      -0.082500
     11 C26          7.7010    -1.0030     3.3760 ca         1 BXM      -0.138000
     12 C28          8.3910    -0.3560     2.3670 ca         1 BXM      -0.041300
     13 C29          7.7050     0.2240     1.3140 ca         1 BXM      -0.138000
     14 C3           2.1480     0.0000    -1.3030 c3         1 BXM      -0.047800
     15 C31          6.3290     0.1550     1.2610 ca         1 BXM      -0.082500
     16 C33          9.8950    -0.2820     2.4140 c3         1 BXM      -0.029700
     17 C34         10.3300     0.4470     3.6870 c3         1 BXM      -0.081100
     18 C38         10.4750    -1.6980     2.4130 c3         1 BXM      -0.081100
     19 C4           2.0810     0.0000     1.2030 ca         1 BXM       0.060600
     20 C42         10.4070     0.4800     1.1900 c3         1 BXM      -0.081100
     21 C46         -1.1690    -2.3090    -5.3220 ca         1 BXM       0.726200
     22 C49         -0.9160    -3.4270    -7.3240 ca         1 BXM       0.520200
     23 C5           1.3820     0.0000     2.4040 ca         1 BXM      -0.123000
     24 C50         -0.2980    -2.3150    -7.9000 ca         1 BXM      -0.333900
     25 C51         -0.1140    -1.1600    -7.1250 ca         1 BXM      -0.042000
     26 C52         -0.5600    -1.1640    -5.8320 ca         1 BXM      -0.294300
     27 C7           0.0000    -0.0010     2.4030 ca         1 BXM      -0.116000
     28 C71          0.1570    -2.3550    -9.3040 c          1 BXM       0.691700
     29 C81          3.6240    -1.7270    -8.8630 c3         1 BXM       0.119900
     30 C82          2.2090    -1.1840    -8.6350 c3         1 BXM       0.065500
     31 C84          1.7340    -1.6870   -11.0620 c3         1 BXM       0.065500
     32 C85          3.1720    -2.2050   -11.1720 c3         1 BXM       0.119900
     33 C9          -0.6930     0.0060     1.2100 ca         1 BXM      -0.132000
     34 N16         -2.0310     1.1540    -2.8980 n          1 BXM      -0.315000
     35 N19          3.4810     0.0000     1.2080 ns         1 BXM      -0.473100
     36 N47         -1.6230    -2.3170    -4.0130 nu         1 BXM      -0.754700
     37 N48         -1.3260    -3.3900    -6.0740 nb         1 BXM      -0.764000
     38 N83          1.3190    -1.7670    -9.6520 n          1 BXM      -0.494800
     39 O15         -2.7510     0.0750    -4.7030 o          1 BXM      -0.634500
     40 O22          3.5410    -1.1310     3.1180 o          1 BXM      -0.596100
     41 O72         -0.5150    -2.9200   -10.1450 o          1 BXM      -0.608100
     42 O86          3.9950    -1.5150   -10.2280 os         1 BXM      -0.422600
     43 H1          -0.3560    -2.0940    -1.7120 ha         1 BXM       0.154000
     44 H2          -1.2840     2.0450    -1.1320 h4         1 BXM       0.164000
     45 H3           5.7840    -1.5800     4.1310 ha         1 BXM       0.139500
     46 H4           8.2430    -1.4540     4.1980 ha         1 BXM       0.141000
     47 H5           8.2520     0.7270     0.5250 ha         1 BXM       0.141000
     48 H6           1.4610     0.1890    -2.1190 hc         1 BXM       0.044367
     49 H7           2.6220    -0.9640    -1.4460 hc         1 BXM       0.044367
     50 H8           2.9050     0.7750    -1.2820 hc         1 BXM       0.044367
     51 H9           5.7930     0.6100     0.4360 ha         1 BXM       0.139500
     52 H10         10.1400    -0.1840     4.5470 hc         1 BXM       0.038922
     53 H11         11.3880     0.6720     3.6310 hc         1 BXM       0.038922
     54 H12          9.7690     1.3680     3.7850 hc         1 BXM       0.038922
     55 H13         11.5450    -1.6490     2.2470 hc         1 BXM       0.038922
     56 H14         10.0130    -2.2760     1.6220 hc         1 BXM       0.038922
     57 H15         10.2790    -2.1700     3.3680 hc         1 BXM       0.038922
     58 H16         11.4880     0.5340     1.2240 hc         1 BXM       0.038922
     59 H17          9.9950     1.4820     1.1910 hc         1 BXM       0.038922
     60 H18         10.0990    -0.0360     0.2890 hc         1 BXM       0.038922
     61 H19         -1.0610    -4.3250    -7.9110 h4         1 BXM       0.041100
     62 H20          1.9220    -0.0020     3.3430 ha         1 BXM       0.171000
     63 H21          0.3620    -0.2820    -7.5440 ha         1 BXM       0.141000
     64 H22         -0.4340    -0.2880    -5.2080 ha         1 BXM       0.141000
     65 H23         -3.7190     2.1990    -3.5590 h1         1 BXM       0.059033
     66 H24         -2.5960     3.1410    -2.5680 h1         1 BXM       0.059033
     67 H25         -2.1830     2.7500    -4.2420 h1         1 BXM       0.059033
     68 H26         -0.5410     0.0010     3.3420 ha         1 BXM       0.137000
     69 H28          4.3190    -1.2050    -8.2160 h1         1 BXM       0.054450
     70 H29          1.8660    -1.4670    -7.6470 h1         1 BXM       0.065450
     71 H30          2.2130    -0.1050    -8.7310 h1         1 BXM       0.065450
     72 H31          1.6910    -0.6580   -11.3960 h1         1 BXM       0.065450
     73 H32          1.0790    -2.3010   -11.6690 h1         1 BXM       0.065450
     74 H33          3.5440    -2.0260   -12.1740 h1         1 BXM       0.054450
     75 H34          3.1900    -3.2670   -10.9580 h1         1 BXM       0.054450
     76 H35         -1.7770     0.0050     1.2130 ha         1 BXM       0.134000
     77 H36          3.9840     0.4350     0.4600 hn         1 BXM       0.327500
     78 H37         -2.0580    -3.1370    -3.6400 hn         1 BXM       0.464800
     79 C60         -2.6740     2.3920    -3.3460 c3         1 BXM       0.083300
     80 H27          3.6440    -2.7870    -8.6440 h1         1 BXM       0.054450
@<TRIPOS>BOND
     1    17    16 1
     2    20    16 1
     3    16    18 1
     4    16    12 1
     5    12    11 ar
     6    12    13 ar
     7    11    10 ar
     8    13    15 ar
     9    10     9 ar
    10    15     9 ar
    11     9     8 1
    12     8    40 2
    13     8    35 1
    14    35    19 1
    15    14     7 1
    16    19     7 ar
    17    19    23 ar
    18     7     1 ar
    19    79    34 1
    20    23    27 ar
    21     6    34 1
    22     6     2 2
    23    34     5 1
    24     1     2 1
    25     1    33 ar
    26     2     3 1
    27    27    33 ar
    28     5    39 2
    29     5     4 1
    30     3     4 2
    31     4    36 1
    32    36    21 1
    33    37    21 ar
    34    37    22 ar
    35    21    26 ar
    36    22    24 ar
    37    26    25 ar
    38    25    24 ar
    39    24    28 1
    40    28    41 2
    41    28    38 1
    42    30    38 1
    43    30    29 1
    44    38    31 1
    45    29    42 1
    46    31    32 1
    47    42    32 1
    48     3    43 1
    49     6    44 1
    50    10    45 1
    51    11    46 1
    52    13    47 1
    53    14    48 1
    54    14    49 1
    55    14    50 1
    56    15    51 1
    57    17    52 1
    58    17    53 1
    59    17    54 1
    60    18    55 1
    61    18    56 1
    62    18    57 1
    63    20    58 1
    64    20    59 1
    65    20    60 1
    66    22    61 1
    67    23    62 1
    68    25    63 1
    69    26    64 1
    70    79    65 1
    71    79    66 1
    72    79    67 1
    73    27    68 1
    74    29    80 1
    75    29    69 1
    76    30    70 1
    77    30    71 1
    78    31    72 1
    79    31    73 1
    80    32    74 1
    81    32    75 1
    82    33    76 1
    83    35    77 1
    84    36    78 1
@<TRIPOS>SUBSTRUCTURE
     1 BXM         1 TEMP              0 ****  ****    0 ROOT
