@<TRIPOS>MOLECULE
molecule
   66    69     1     0     0
SMALL
bcc


@<TRIPOS>ATOM
      1 C10          0.0000     0.0000     0.0000 c3         1 BXN      -0.557900
      2 C15          1.6170    -2.3430     2.6630 ca         1 BXN      -0.065600
      3 C17          1.8220    -3.6650     3.0180 ca         1 BXN      -0.082000
      4 C21          3.8360    -6.6390     5.4810 c3         1 BXN       0.003800
      5 C24          9.2260     0.1360     3.5870 c3         1 BXN       0.169800
      6 C26         10.5200    -0.2420     4.7440 c3         1 BXN       0.159800
      7 C28          8.4810    -0.2570     6.3260 c3         1 BXN      -0.075400
      8 C02          2.5830     1.1320    -1.9340 cc         1 BXN       0.436600
      9 C06          2.5680    -1.0980    -1.9100 cd         1 BXN       0.021400
     10 C07          3.1200    -2.3110    -2.1220 c3         1 BXN      -0.135800
     11 C08          2.1690    -0.0010    -1.2190 cc         1 BXN      -0.849700
     12 C14          2.5530    -1.6820     1.8870 ca         1 BXN       0.128500
     13 C18          2.9610    -4.3250     2.5970 ca         1 BXN      -0.111300
     14 C19          3.1910    -5.7700     2.9590 c3         1 BXN       0.009900
     15 C23          8.0100    -0.2080     2.9270 c3         1 BXN       0.047800
     16 C27         10.1940    -0.6850     6.0800 c3         1 BXN      -0.143400
     17 C29          8.4990     1.0190     5.6620 c3         1 BXN       0.108500
     18 C30          6.9710     0.8400     5.1470 c3         1 BXN       0.047800
     19 C31          3.8960    -3.6660     1.8220 ca         1 BXN      -0.082000
     20 C32          3.6920    -2.3450     1.4660 ca         1 BXN      -0.065600
     21 N03          3.2020     0.7330    -3.0160 nd         1 BXN      -0.478800
     22 N04          3.2110    -0.6680    -3.0280 na         1 BXN       0.009400
     23 N09          1.4650     0.0000     0.0000 nh         1 BXN       1.183100
     24 N22          6.9020    -0.1900     4.1270 n3         1 BXN      -0.649600
     25 N25          9.4190     1.0530     4.2560 n3         1 BXN      -0.539600
     26 O12          0.9950     0.7260     2.3140 o          1 BXN       0.162200
     27 O13          1.6640     0.3010     0.3650 o          1 BXN       0.162200
     28 S11          2.2930     0.0000     1.4350 sy         1 BXN      -0.987800
     29 Cl2          3.4440    -3.5000    -0.0020 cl         1 BXN       0.021100
     30 H1          -0.5310    -0.1400     0.9330 h1         1 BXN       0.084367
     31 H2           0.1210     1.0720    -0.0980 h1         1 BXN       0.084367
     32 H3          -0.2470    -0.4600    -0.9490 h1         1 BXN       0.084367
     33 H4           1.0150    -3.6940     3.7400 ha         1 BXN       0.162000
     34 H5           2.7940    -5.3090     4.2710 hc         1 BXN       0.079700
     35 H6           1.5980    -6.4080     4.4960 hc         1 BXN       0.079700
     36 H7           4.4960    -7.3600     5.0150 h1         1 BXN       0.067700
     37 H8           3.6710    -6.6830     6.5510 h1         1 BXN       0.067700
     38 H10          9.4300    -0.8900     3.8700 h1         1 BXN       0.011200
     39 H11         10.6220    -1.0810     4.0670 h1         1 BXN       0.057200
     40 H12         11.4900     0.2240     4.8710 h1         1 BXN       0.057200
     41 H13          7.9830    -1.1890     6.0860 hc         1 BXN       0.065200
     42 H14          8.1480    -0.1190     7.3480 hc         1 BXN       0.065200
     43 H21          4.1840    -2.4900    -2.2090 hc         1 BXN       0.090033
     44 H22          2.9450    -2.9960    -1.3010 hc         1 BXN       0.090033
     45 H23          2.8380    -2.8940    -2.9900 hc         1 BXN       0.090033
     46 H24          4.2410    -6.0040     2.8310 hc         1 BXN       0.050700
     47 H25          2.6920    -6.1770     2.0870 hc         1 BXN       0.050700
     48 H26          7.7610    -0.8100     2.0610 h1         1 BXN       0.066200
     49 H27          7.7760     0.6830     2.3560 h1         1 BXN       0.066200
     50 H28         10.3580    -1.6740     6.4910 hc         1 BXN       0.051700
     51 H29         10.6660    -0.0980     6.8600 hc         1 BXN       0.051700
     52 H30          8.1960     1.9450     6.1370 h1         1 BXN       0.115700
     53 H31          6.1710     0.9370     5.8710 h1         1 BXN       0.072700
     54 H32          6.6230     1.6450     4.5100 h1         1 BXN       0.072700
     55 H33          4.8010    -4.1880     1.5370 ha         1 BXN       0.162000
     56 Cl1          0.2680    -1.6790     2.9790 cl         1 BXN       0.021100
     57 C20          2.6640    -6.3840     4.3070 c3         1 BXN      -0.180400
     58 C01          2.2970     2.5120    -1.7010 c3         1 BXN      -0.154400
     59 C05          3.8270    -2.0010    -3.7770 c3         1 BXN       0.106600
     60 H9           9.9390     0.1630     2.7710 h1         1 BXN       0.011200
     61 H15          1.3170     2.9630    -1.7980 hc         1 BXN       0.056033
     62 H16          2.7880     3.3890    -2.1060 hc         1 BXN       0.056033
     63 H17          2.5450     2.5790    -0.6480 hc         1 BXN       0.056033
     64 H18          4.0010    -1.7940    -4.8260 h1         1 BXN       0.061700
     65 H19          3.1760    -2.8540    -3.9260 h1         1 BXN       0.061700
     66 H20          4.8740    -2.0020    -3.4970 h1         1 BXN       0.061700
@<TRIPOS>BOND
     1    58     8 1
     2    21     8 2
     3    21    22 1
     4     8    11 1
     5    22    59 1
     6    22     9 1
     7    11     9 2
     8    11    23 1
     9     1    23 1
    10     9    10 1
    11    23    28 1
    12    26    28 2
    13    28    27 2
    14    28    12 1
    15    29    20 1
    16    12    20 ar
    17    12     2 ar
    18    56     2 1
    19    20    19 ar
    20     2     3 ar
    21    19    13 ar
    22     3    13 ar
    23    13    14 1
    24    17    18 1
    25    17     7 1
    26    17    25 1
    27     4    24 1
    28     4    57 1
    29    18    24 1
    30     7    16 1
    31    24    15 1
    32    25     5 1
    33    25     6 1
    34     5    15 1
    35    14    57 1
    36    16     6 1
    37     1    30 1
    38     1    31 1
    39     1    32 1
    40     3    33 1
    41    57    34 1
    42    57    35 1
    43     4    36 1
    44     4    37 1
    45     5    60 1
    46     5    38 1
    47     6    39 1
    48     6    40 1
    49     7    41 1
    50     7    42 1
    51    58    61 1
    52    58    62 1
    53    58    63 1
    54    59    64 1
    55    59    65 1
    56    59    66 1
    57    10    43 1
    58    10    44 1
    59    10    45 1
    60    14    46 1
    61    14    47 1
    62    15    48 1
    63    15    49 1
    64    16    50 1
    65    16    51 1
    66    17    52 1
    67    18    53 1
    68    18    54 1
    69    19    55 1
@<TRIPOS>SUBSTRUCTURE
     1 BXN         1 TEMP              0 ****  ****    0 ROOT
