@<TRIPOS>MOLECULE
molecule
   15    14     1     0     0
SMALL
bcc


@<TRIPOS>ATOM
      1 C4           0.0000     0.0000     0.0000 c3         1 BXO      -0.091100
      2 C3           1.5300     0.0000     0.0000 c3         1 BXO      -0.107400
      3 C2           2.0400     0.0000     1.4420 c3         1 BXO      -0.263700
      4 C1           3.5470     0.0000     1.4420 c2         1 BXO       0.114200
      5 N1           4.1860     0.9080     2.0770 n2         1 BXO      -0.319200
      6 O1           3.4780     1.9130     2.7800 oh         1 BXO      -0.467500
      7 H4          -0.3610    -0.7950     0.6420 hc         1 BXO       0.041367
      8 H4A         -0.3610     0.9530     0.3670 hc         1 BXO       0.041367
      9 H4B         -0.3610    -0.1580    -1.0090 hc         1 BXO       0.041367
     10 H3           1.8910     0.8840    -0.5110 hc         1 BXO       0.058200
     11 H3A          1.8910    -0.8850    -0.5110 hc         1 BXO       0.058200
     12 H2           1.6790     0.8840     1.9530 hc         1 BXO       0.092700
     13 H2A          1.6790    -0.8850     1.9530 hc         1 BXO       0.092700
     14 H1           2.9360     0.6520     0.8300 h4         1 BXO       0.279800
     15 HO1          4.0840     2.4300     3.2840 ho         1 BXO       0.430000
@<TRIPOS>BOND
     1     1     2 1
     2     2     3 1
     3     3     4 1
     4     4     5 2
     5     5     6 1
     6     1     7 1
     7     1     8 1
     8     1     9 1
     9     2    10 1
    10     2    11 1
    11     3    12 1
    12     3    13 1
    13     4    14 1
    14     6    15 1
@<TRIPOS>SUBSTRUCTURE
     1 BXO         1 TEMP              0 ****  ****    0 ROOT
