@<TRIPOS>MOLECULE
BXO
   15    14     1     0     0
SMALL
bcc


@<TRIPOS>ATOM
      1 C4           0.0000     0.0000     0.0000 c3         1 BXO       0.006900
      2 C3           1.5300     0.0000     0.0000 c3         1 BXO      -0.019400
      3 C2           2.0400     0.0000     1.4420 c3         1 BXO      -0.106700
      4 C1           3.5470     0.0000     1.4420 c2         1 BXO       0.392200
      5 N1           4.1860     0.9080     2.0770 n2         1 BXO      -0.405200
      6 O1           3.4780     1.9130     2.7800 oh         1 BXO      -0.378500
      7 H4          -0.3610    -0.1510    -1.0100 hc         1 BXO       0.001700
      8 H4A         -0.3610    -0.7990     0.6360 hc         1 BXO       0.001700
      9 H4B         -0.3610     0.9500     0.3740 hc         1 BXO       0.001700
     10 H3           1.8910    -0.8840    -0.5110 hc         1 BXO       0.013200
     11 H3A          1.8910     0.8840    -0.5110 hc         1 BXO       0.013200
     12 H2           1.6790     0.8840     1.9530 hc         1 BXO       0.034700
     13 H2A          1.6790    -0.8850     1.9530 hc         1 BXO       0.034700
     14 H1           4.0890    -0.7690     0.9040 h4         1 BXO      -0.005200
     15 HO1          4.0890     2.4660     3.2380 ho         1 BXO       0.415000
@<TRIPOS>BOND
     1     1     2 1   
     2     1     7 1   
     3     1     8 1   
     4     1     9 1   
     5     2     3 1   
     6     2    10 1   
     7     2    11 1   
     8     3     4 1   
     9     3    12 1   
    10     3    13 1   
    11     4     5 2   
    12     4    14 1   
    13     5     6 1   
    14     6    15 1   
@<TRIPOS>SUBSTRUCTURE
     1 BXO         1 TEMP              0 ****  ****    0 ROOT
