@<TRIPOS>MOLECULE
BXQ
   71    73     1     0     0
SMALL
bcc


@<TRIPOS>ATOM
      1 F1           0.0000     0.0000     0.0000 f          1 BXQ      -0.204633
      2 C2           1.4000     0.0000     0.0000 c3         1 BXQ       0.532900
      3 F3           1.8650    -1.1410    -0.6600 f          1 BXQ      -0.204633
      4 F4           1.8650     1.1430    -0.6590 f          1 BXQ      -0.204633
      5 C5           1.9090     0.0000     1.4430 c3         1 BXQ       0.133100
      6 O7           1.4320     1.1670     2.1170 oh         1 BXQ      -0.550800
      7 C9           1.3990    -1.2490     2.1640 c3         1 BXQ       0.034900
      8 C12          2.0000    -1.3120     3.5440 ca         1 BXQ      -0.153300
      9 C13          3.2950    -1.7830     3.7170 ca         1 BXQ       0.038600
     10 C14          3.8460    -1.8400     4.9940 ca         1 BXQ       0.021900
     11 C15          3.1010    -1.4280     6.0840 ca         1 BXQ      -0.084000
     12 C17          1.8120    -0.9610     5.9060 ca         1 BXQ      -0.135300
     13 C18          1.2650    -0.8970     4.6380 ca         1 BXQ      -0.026000
     14 C20          1.0040    -0.5120     7.0960 c3         1 BXQ       0.040900
     15 C23          1.2390     0.9800     7.3400 c3         1 BXQ      -0.043700
     16 C25          0.3230     1.4600     8.4610 c3         1 BXQ       0.174100
     17 C27          0.3480     2.9820     8.5620 c3         1 BXQ       0.123500
     18 C29          1.7050     3.4500     9.0940 c3         1 BXQ      -0.005600
     19 S32          2.9970     2.9920     7.9010 s6         1 BXQ       0.790000
     20 C33          2.7010     1.2070     7.7280 c3         1 BXQ      -0.018600
     21 O36          2.7140     3.6240     6.6600 o          1 BXQ      -0.583300
     22 O37          4.2660     3.1870     8.5080 o          1 BXQ      -0.583300
     23 N38         -0.7110     3.4280     9.4770 n7         1 BXQ      -0.589200
     24 C40         -1.1240     4.8050     9.1740 c3         1 BXQ       0.204100
     25 C43         -2.2090     5.2260    10.1310 ca         1 BXQ      -0.097300
     26 C44         -1.8790     5.8350    11.3270 ca         1 BXQ      -0.079000
     27 C46         -2.8740     6.2210    12.2040 ca         1 BXQ      -0.076300
     28 C47         -4.2010     5.9990    11.8850 ca         1 BXQ      -0.111000
     29 C49         -4.5320     5.3920    10.6890 ca         1 BXQ      -0.097000
     30 C51         -3.5370     5.0090     9.8090 ca         1 BXQ      -0.102000
     31 C53         -2.5130     6.8840    13.5090 c3         1 BXQ      -0.013700
     32 C54         -1.7450     8.1780    13.2280 c3         1 BXQ       0.004900
     33 C58         -3.7900     7.2090    14.2870 c3         1 BXQ       0.004900
     34 C62         -1.6380     5.9400    14.3350 c3         1 BXQ       0.004900
     35 O66         -1.0120     1.0270     8.1980 oh         1 BXQ      -0.580800
     36 F68          5.1050    -2.2970     5.1670 f          1 BXQ      -0.127900
     37 N69          4.0430    -2.2000     2.6120 nv         1 BXQ      -0.450200
     38 H1           2.9920     0.0000     1.4430 h1         1 BXQ       0.035700
     39 H2           1.9100     1.9210     1.8150 ho         1 BXQ       0.405000
     40 H3           1.6870    -2.1310     1.6040 hc         1 BXQ       0.040200
     41 H4           0.3200    -1.2070     2.2410 hc         1 BXQ       0.040200
     42 H5           3.5280    -1.4740     7.0780 ha         1 BXQ       0.119000
     43 H6           0.2540    -0.5300     4.5030 ha         1 BXQ       0.118000
     44 H7           1.3090    -1.0730     7.9710 hc         1 BXQ       0.026200
     45 H8          -0.0480    -0.6860     6.9040 hc         1 BXQ       0.026200
     46 H9           1.0190     1.5350     6.4360 hc         1 BXQ       0.066700
     47 H10          0.6610     1.0370     9.4000 h1         1 BXQ       0.013700
     48 H11          0.1830     3.4080     7.5790 h1         1 BXQ       0.045700
     49 H12          1.9050     2.9710    10.0450 h1         1 BXQ       0.078200
     50 H13          1.6930     4.5260     9.2190 h1         1 BXQ       0.078200
     51 H14          3.3470     0.8080     6.9550 h1         1 BXQ       0.079700
     52 H15          2.9070     0.7140     8.6700 h1         1 BXQ       0.079700
     53 H16         -1.5000     2.8180     9.3960 hn         1 BXQ       0.274800
     54 H18         -0.2730     5.4680     9.2780 h1         1 BXQ       0.013700
     55 H19         -1.4980     4.8540     8.1590 h1         1 BXQ       0.013700
     56 H20         -0.8390     6.0090    11.5760 ha         1 BXQ       0.114000
     57 H21         -4.9810     6.3000    12.5740 ha         1 BXQ       0.119000
     58 H22         -5.5720     5.2200    10.4390 ha         1 BXQ       0.102000
     59 H23         -3.7960     4.5330     8.8710 ha         1 BXQ       0.104000
     60 H24         -1.6760     8.7610    14.1390 hc         1 BXQ       0.007256
     61 H25         -2.2670     8.7510    12.4710 hc         1 BXQ       0.007256
     62 H26         -0.7490     7.9370    12.8770 hc         1 BXQ       0.007256
     63 H27         -4.4100     7.8760    13.7010 hc         1 BXQ       0.007256
     64 H28         -3.5300     7.6860    15.2240 hc         1 BXQ       0.007256
     65 H29         -4.3330     6.2930    14.4870 hc         1 BXQ       0.007256
     66 H30         -0.6500     5.8830    13.8930 hc         1 BXQ       0.007256
     67 H31         -2.0840     4.9530    14.3490 hc         1 BXQ       0.007256
     68 H32         -1.5590     6.3150    15.3480 hc         1 BXQ       0.007256
     69 H33         -1.2950     0.4440     8.8830 ho         1 BXQ       0.400000
     70 H34          3.6160    -2.2500     1.7090 hn         1 BXQ       0.277300
     71 H35          5.0100    -2.4340     2.7220 hn         1 BXQ       0.277300
@<TRIPOS>BOND
     1     1     2 1   
     2     2     3 1   
     3     2     4 1   
     4     2     5 1   
     5     5     6 1   
     6     5     7 1   
     7     5    38 1   
     8     6    39 1   
     9     7     8 1   
    10     7    40 1   
    11     7    41 1   
    12     8     9 ar  
    13     8    13 ar  
    14     9    10 ar  
    15     9    37 1   
    16    10    11 ar  
    17    10    36 1   
    18    11    12 ar  
    19    11    42 1   
    20    12    13 ar  
    21    12    14 1   
    22    13    43 1   
    23    14    15 1   
    24    14    44 1   
    25    14    45 1   
    26    15    16 1   
    27    15    20 1   
    28    15    46 1   
    29    16    17 1   
    30    16    35 1   
    31    16    47 1   
    32    17    18 1   
    33    17    23 1   
    34    17    48 1   
    35    18    19 1   
    36    18    49 1   
    37    18    50 1   
    38    19    20 1   
    39    19    21 2   
    40    19    22 2   
    41    20    51 1   
    42    20    52 1   
    43    23    24 1   
    44    23    53 1   
    45    24    25 1   
    46    24    54 1   
    47    24    55 1   
    48    25    26 ar  
    49    25    30 ar  
    50    26    27 ar  
    51    26    56 1   
    52    27    28 ar  
    53    27    31 1   
    54    28    29 ar  
    55    28    57 1   
    56    29    30 ar  
    57    29    58 1   
    58    30    59 1   
    59    31    32 1   
    60    31    33 1   
    61    31    34 1   
    62    32    60 1   
    63    32    61 1   
    64    32    62 1   
    65    33    63 1   
    66    33    64 1   
    67    33    65 1   
    68    34    66 1   
    69    34    67 1   
    70    34    68 1   
    71    35    69 1   
    72    37    70 1   
    73    37    71 1   
@<TRIPOS>SUBSTRUCTURE
     1 BXQ         1 TEMP              0 ****  ****    0 ROOT
