@<TRIPOS>MOLECULE
molecule
   26    27     1     0     0
SMALL
bcc


@<TRIPOS>ATOM
      1 C1           0.0000     0.0000     0.0000 ca         1 BXR      -0.121000
      2 C2           1.3810     0.0000     0.0000 ca         1 BXR      -0.075000
      3 C3           2.0740     0.0000     1.1980 ca         1 BXR       0.036400
      4 C4           1.3850     0.0010     2.3990 ca         1 BXR      -0.096000
      5 C5           0.0050     0.0010     2.4030 ca         1 BXR      -0.096300
      6 C6          -0.6940     0.0060     1.2030 ca         1 BXR       0.015800
      7 Cl7          3.8100    -0.0020     1.1950 cl         1 BXR      -0.047400
      8 N8          -2.0960     0.0070     1.2050 na         1 BXR       0.001500
      9 C9          -2.9180     0.0110     0.1340 cc         1 BXR       0.444400
     10 N10         -4.1450     0.0100     0.5850 nd         1 BXR      -0.379000
     11 N11         -4.1550     0.0060     1.8700 nd         1 BXR       0.025000
     12 N12         -2.9480    -0.0030     2.3240 nc         1 BXR      -0.313800
     13 C13         -0.7450     0.0020     3.7110 c3         1 BXR      -0.063100
     14 C14         -1.1070    -1.4350     4.0920 c3         1 BXR       0.104800
     15 N15         -1.8380    -1.4340     5.3660 nz         1 BXR      -0.807600
     16 H1          -0.5420     0.0020    -0.9380 ha         1 BXR       0.157000
     17 H2           1.9220    -0.0030    -0.9390 ha         1 BXR       0.176000
     18 H4           1.9300    -0.0010     3.3350 ha         1 BXR       0.158000
     19 H9          -2.6160     0.0150    -0.9060 h5         1 BXR       0.100100
     20 H13         -1.6510     0.5870     3.6080 hc         1 BXR       0.090700
     21 H13A        -0.1220     0.4340     4.4840 hc         1 BXR       0.090700
     22 H14         -0.2020    -2.0200     4.1950 hx         1 BXR       0.112700
     23 H14A        -1.7310    -1.8670     3.3180 hx         1 BXR       0.112700
     24 HN15        -1.2260    -1.1400     6.1020 hn         1 BXR       0.458467
     25 HN1A        -2.1730    -2.3570     5.5590 hn         1 BXR       0.458467
     26 H153        -2.6130    -0.8030     5.3060 hn         1 BXR       0.458467
@<TRIPOS>BOND
     1     6     1 ar
     2     2     1 ar
     3     1    16 1
     4     3     2 ar
     5     2    17 1
     6     4     3 ar
     7     7     3 1
     8     4     5 ar
     9     4    18 1
    10    13     5 1
    11     5     6 ar
    12     6     8 1
    13    12     8 1
    14     8     9 1
    15    10     9 2
    16     9    19 1
    17    11    10 1
    18    12    11 2
    19    13    14 1
    20    13    20 1
    21    13    21 1
    22    15    14 1
    23    14    22 1
    24    14    23 1
    25    15    24 1
    26    15    25 1
    27    26    15 1
@<TRIPOS>SUBSTRUCTURE
     1 BXR         1 TEMP              0 ****  ****    0 ROOT
