@<TRIPOS>MOLECULE
molecule
   27    28     1     0     0
SMALL
bcc


@<TRIPOS>ATOM
      1 C10          0.0000     0.0000     0.0000 ca         1 BXS      -0.088000
      2 C15          1.3630     0.3640     4.7560 c3         1 BXS       0.100400
      3 C17          1.3980    -0.0010     2.4060 ca         1 BXS       0.036100
      4 C02          1.3460     0.0050    -5.0030 c          1 BXS       0.848800
      5 C04          2.0850     0.0040    -3.7190 ce         1 BXS       0.142900
      6 C06          1.4070     0.0030    -2.5490 cf         1 BXS      -0.357200
      7 C09          1.3990     0.0000     0.0000 ca         1 BXS      -0.147600
      8 C11         -0.6870     0.0050     1.1930 ca         1 BXS      -0.145000
      9 C12          0.0040     0.0060     2.4000 ca         1 BXS       0.063100
     10 C14          0.0170    -0.3730     4.7460 c3         1 BXS       0.098400
     11 C18          2.0930     0.0000     1.2130 ca         1 BXS      -0.079000
     12 O01          0.1320     0.0050    -5.0050 o          1 BXS      -0.818300
     13 O03          2.0210     0.0070    -6.1690 o          1 BXS      -0.818300
     14 O05          3.4380     0.0050    -3.7170 oh         1 BXS      -0.504100
     15 O08          3.3550     0.0030    -1.2750 o          1 BXS      -0.550100
     16 O13         -0.6960     0.0110     3.5650 os         1 BXS      -0.328900
     17 O16          2.0880    -0.0070     3.5800 os         1 BXS      -0.325900
     18 H1          -0.5420    -0.0480    -0.9370 ha         1 BXS       0.160000
     19 H2           1.9260     0.0570     5.6290 h1         1 BXS       0.061700
     20 H3           1.1810     1.4310     4.7370 h1         1 BXS       0.061700
     21 H5           0.3240     0.0020    -2.5500 ha         1 BXS       0.155000
     22 H7          -1.7710     0.0050     1.1920 ha         1 BXS       0.139000
     23 H8          -0.5560    -0.0740     5.6160 h1         1 BXS       0.061700
     24 H9           0.1980    -1.4400     4.7180 h1         1 BXS       0.061700
     25 H10          3.1760    -0.0000     1.2170 ha         1 BXS       0.164000
     26 H12          3.7530    -0.7430    -4.1970 ho         1 BXS       0.430000
     27 C07          2.1380     0.0020    -1.2780 c          1 BXS       0.575900
@<TRIPOS>BOND
     1     2    17 1
     2     2    10 1
     3    17     3 1
     4    15    27 2
     5     3    11 ar
     6     3     9 ar
     7    11     7 ar
     8    10    16 1
     9    14     5 1
    10    27     7 1
    11    27     6 1
    12     7     1 ar
    13     9    16 1
    14     9     8 ar
    15     5     6 2
    16     5     4 1
    17     8     1 ar
    18    12     4 1
    19     4    13 1
    20     1    18 1
    21     2    19 1
    22     2    20 1
    23     6    21 1
    24     8    22 1
    25    10    23 1
    26    10    24 1
    27    11    25 1
    28    14    26 1
@<TRIPOS>SUBSTRUCTURE
     1 BXS         1 TEMP              0 ****  ****    0 ROOT
