@<TRIPOS>MOLECULE
molecule
   51    53     1     0     0
SMALL
bcc


@<TRIPOS>ATOM
      1 F29          0.0000     0.0000     0.0000 f          1 BXV      -0.206633
      2 C26          1.3990     0.0000     0.0000 c3         1 BXV       0.794700
      3 F27          1.8660     0.0000     1.3190 f          1 BXV      -0.206633
      4 F28          1.8660    -1.1420    -0.6600 f          1 BXV      -0.206633
      5 O25          1.8750     1.1670    -0.6730 os         1 BXV      -0.343900
      6 C24          1.5100     2.3700    -0.1560 ca         1 BXV       0.097100
      7 C23          0.7140     2.4250     0.9790 ca         1 BXV      -0.152500
      8 C22          0.3440     3.6460     1.5040 ca         1 BXV      -0.113500
      9 C30          1.9370     3.5440    -0.7610 ca         1 BXV      -0.152500
     10 C31          1.5670     4.7660    -0.2360 ca         1 BXV      -0.113500
     11 C1           0.7670     4.8200     0.8970 ca         1 BXV       0.061600
     12 N2           0.3900     6.0600     1.4300 ns         1 BXV      -0.497100
     13 C3          -0.8310     6.2170     1.9780 c          1 BXV       0.781100
     14 O21         -1.5740     5.2600     2.0890 o          1 BXV      -0.651100
     15 N4          -1.2300     7.4310     2.4030 ns         1 BXV      -0.590900
     16 C5          -2.5570     7.6000     2.9990 c3         1 BXV       0.128700
     17 C20         -3.5910     7.8110     1.8910 c3         1 BXV      -0.093900
     18 C19         -4.9770     7.9870     2.5130 c3         1 BXV      -0.089900
     19 C8          -4.9690     9.2040     3.4410 c3         1 BXV       0.146100
     20 C7          -3.9360     8.9930     4.5490 c3         1 BXV      -0.089900
     21 C6          -2.5500     8.8160     3.9270 c3         1 BXV      -0.093900
     22 O9          -6.2650     9.3680     4.0220 os         1 BXV      -0.337900
     23 C10         -6.6020    10.6170     4.4330 ca         1 BXV       0.102100
     24 C18         -5.6650    11.6420     4.3730 ca         1 BXV      -0.219500
     25 C17         -6.0030    12.9100     4.7890 ca         1 BXV      -0.067500
     26 C13         -7.2900    13.1660     5.2690 ca         1 BXV      -0.133600
     27 C14         -7.6570    14.5240     5.7150 c          1 BXV       0.885200
     28 O16         -8.8990    14.7690     6.1790 o          1 BXV      -0.840800
     29 O15         -6.8390    15.4210     5.6640 o          1 BXV      -0.840800
     30 C12         -8.2290    12.1320     5.3280 ca         1 BXV      -0.067500
     31 C11         -7.8840    10.8680     4.9060 ca         1 BXV      -0.219500
     32 H1           0.3840     1.5090     1.4530 ha         1 BXV       0.148000
     33 H2          -0.2790     3.6880     2.3900 ha         1 BXV       0.158000
     34 H3           2.5620     3.5010    -1.6450 ha         1 BXV       0.148000
     35 H4           1.8990     5.6820    -0.7100 ha         1 BXV       0.158000
     36 H5           1.0340     6.8260     1.4170 hn         1 BXV       0.317500
     37 H6          -0.6120     8.2150     2.3260 hn         1 BXV       0.306500
     38 H7          -2.8180     6.7160     3.5680 h1         1 BXV       0.083700
     39 H8          -3.5970     6.9490     1.2350 hc         1 BXV       0.047450
     40 H9          -3.3350     8.6990     1.3250 hc         1 BXV       0.047450
     41 H10         -5.7080     8.1380     1.7270 hc         1 BXV       0.059700
     42 H11         -5.2310     7.1010     3.0830 hc         1 BXV       0.059700
     43 H12         -4.7100    10.0880     2.8720 h1         1 BXV       0.052700
     44 H13         -4.1920     8.1050     5.1150 hc         1 BXV       0.059700
     45 H14         -3.9290     9.8560     5.2040 hc         1 BXV       0.059700
     46 H15         -1.8200     8.6640     4.7120 hc         1 BXV       0.047450
     47 H16         -2.2950     9.7010     3.3570 hc         1 BXV       0.047450
     48 H17         -4.6680    11.4430     4.0010 ha         1 BXV       0.114000
     49 H18         -5.2720    13.7090     4.7420 ha         1 BXV       0.152000
     50 H20         -9.2280    12.3270     5.6980 ha         1 BXV       0.152000
     51 H21         -8.6110    10.0660     4.9500 ha         1 BXV       0.114000
@<TRIPOS>BOND
     1     4     2 1
     2     5     2 1
     3     5     6 1
     4     2     1 1
     5     2     3 1
     6     6     9 ar
     7     6     7 ar
     8     9    10 ar
     9     7     8 ar
    10    10    11 ar
    11     8    11 ar
    12    11    12 1
    13    12    13 1
    14    14    13 2
    15    13    15 1
    16    15    16 1
    17    16    21 1
    18    16    17 1
    19    21    20 1
    20    17    18 1
    21    20    19 1
    22    18    19 1
    23    19    22 1
    24    24    25 ar
    25    24    23 ar
    26    22    23 1
    27    25    26 ar
    28    23    31 ar
    29    26    27 1
    30    26    30 ar
    31    31    30 ar
    32    29    27 1
    33    27    28 1
    34     7    32 1
    35     8    33 1
    36     9    34 1
    37    10    35 1
    38    12    36 1
    39    15    37 1
    40    16    38 1
    41    17    39 1
    42    17    40 1
    43    18    41 1
    44    18    42 1
    45    19    43 1
    46    20    44 1
    47    20    45 1
    48    21    46 1
    49    21    47 1
    50    24    48 1
    51    25    49 1
    52    30    50 1
    53    31    51 1
@<TRIPOS>SUBSTRUCTURE
     1 BXV         1 TEMP              0 ****  ****    0 ROOT
