@<TRIPOS>MOLECULE
molecule
   20    21     1     0     0
SMALL
bcc


@<TRIPOS>ATOM
      1 O19          0.0000     0.0000     0.0000 o          1 BXW      -0.830300
      2 C20          1.3470     0.0000     0.0000 c          1 BXW       0.883200
      3 C21          2.0850     0.0000     1.2770 ca         1 BXW      -0.110600
      4 O22          1.9550     0.0010    -1.0520 o          1 BXW      -0.830300
      5 C23          1.3910    -0.0060     2.4900 ca         1 BXW      -0.065000
      6 C24          2.0770    -0.0070     3.6830 ca         1 BXW      -0.187000
      7 C25          3.4840     0.0010     1.2820 ca         1 BXW      -0.053000
      8 C26          4.1650    -0.0010     2.4820 ca         1 BXW      -0.022100
      9 C27          3.4710    -0.0050     3.6960 ca         1 BXW       0.022600
     10 N28          4.1370    -0.0150     4.9130 ns         1 BXW      -0.447100
     11 C29          5.3860     0.3930     5.1250 c          1 BXW       0.700500
     12 C30          6.2820     0.9170     4.0360 c3         1 BXW      -0.069300
     13 S31          5.9310     0.0050     2.4980 ss         1 BXW      -0.281000
     14 O32          5.8250     0.3380     6.2530 o          1 BXW      -0.667500
     15 H23          0.3070    -0.0090     2.4910 ha         1 BXW       0.163000
     16 H24          1.5300    -0.0110     4.6180 ha         1 BXW       0.115000
     17 H25          4.0290    -0.0830     0.3500 ha         1 BXW       0.164000
     18 HN28         3.6310    -0.3600     5.7050 hn         1 BXW       0.328500
     19 H30          6.0660     1.9670     3.8790 h1         1 BXW       0.093200
     20 H30A         7.3140     0.7470     4.3180 h1         1 BXW       0.093200
@<TRIPOS>BOND
     1     1     2 1
     2     4     2 1
     3     2     3 1
     4     5     3 ar
     5     3     7 ar
     6     5     6 ar
     7     5    15 1
     8     6     9 ar
     9     6    16 1
    10     7     8 ar
    11     7    17 1
    12     9     8 ar
    13     8    13 1
    14     9    10 1
    15    10    11 1
    16    10    18 1
    17    12    11 1
    18    11    14 2
    19    13    12 1
    20    12    19 1
    21    12    20 1
@<TRIPOS>SUBSTRUCTURE
     1 BXW         1 TEMP              0 ****  ****    0 ROOT
