@<TRIPOS>MOLECULE
BXZ
   27    29     1     0     0
SMALL
bcc


@<TRIPOS>ATOM
      1 C1          0.0010    0.1160   -0.1180 ca        1 BXZ     -0.178000
      2 C2          1.3900    0.0690   -0.1380 ca        1 BXZ     -0.030000
      3 C3          2.0700    0.0430    1.0760 ca        1 BXZ     -0.252900
      4 C4          1.3280    0.0590    2.2960 ca        1 BXZ      0.086100
      5 C5         -0.0560    0.1050    2.3530 ca        1 BXZ     -0.213000
      6 C6         -0.7050    0.1340    1.1080 ca        1 BXZ      0.161100
      7 O1         -2.0730    0.1810    1.0030 oh        1 BXZ     -0.490100
      8 O2          2.2450    0.0170    3.3640 os        1 BXZ     -0.010600
      9 N1          3.4820   -0.0210    2.8800 nc        1 BXZ     -0.369200
     10 C7          3.4670   -0.0140    1.5350 cd        1 BXZ      0.437500
     11 C8          4.6290   -0.0400    0.6640 ca        1 BXZ     -0.175900
     12 C9          4.7080    0.8620   -0.4000 ca        1 BXZ     -0.013000
     13 C10         5.8060    0.8850   -1.2620 ca        1 BXZ     -0.159900
     14 C11         6.8610   -0.0250   -1.0480 ca        1 BXZ      0.212100
     15 C12         6.8040   -0.9470    0.0090 ca        1 BXZ     -0.261000
     16 C13         5.6920   -0.9530    0.8580 ca        1 BXZ      0.210100
     17 O3          5.5790   -1.8500    1.8850 oh        1 BXZ     -0.468100
     18 O4          7.9890   -0.0960   -1.8190 oh        1 BXZ     -0.485100
     19 BR1         5.8340    2.1250   -2.6630 br        1 BXZ     -0.077100
     20 H1         -0.5740    0.1380   -1.0550 ha        1 BXZ      0.158000
     21 H2          1.9380    0.0520   -1.0910 ha        1 BXZ      0.149000
     22 H5         -0.6030    0.1160    3.3030 ha        1 BXZ      0.160000
     23 HO1        -2.4460    0.1840    1.8980 ho        1 BXZ      0.426000
     24 H9          3.8760    1.5720   -0.5510 ha        1 BXZ      0.158000
     25 H12         7.6360   -1.6490    0.1550 ha        1 BXZ      0.162000
     26 HO3         6.3920   -2.3780    1.9200 ho        1 BXZ      0.429000
     27 HO4         7.9360    0.5830   -2.5130 ho        1 BXZ      0.437000
@<TRIPOS>BOND
     1    1    2 ar  
     2    1    6 ar  
     3    1   20 1   
     4    2    3 ar  
     5    2   21 1   
     6    3    4 ar  
     7    3   10 1   
     8    4    5 ar  
     9    4    8 1   
    10    5    6 ar  
    11    5   22 1   
    12    6    7 1   
    13    7   23 1   
    14    8    9 1   
    15    9   10 2   
    16   10   11 1   
    17   11   12 ar  
    18   11   16 ar  
    19   12   13 ar  
    20   12   24 1   
    21   13   14 ar  
    22   13   19 1   
    23   14   15 ar  
    24   14   18 1   
    25   15   16 ar  
    26   15   25 1   
    27   16   17 1   
    28   17   26 1   
    29   18   27 1   
@<TRIPOS>SUBSTRUCTURE
     1 BXZ         1 TEMP              0 ****  ****    0 ROOT
