@<TRIPOS>MOLECULE
molecule
   23    23     1     0     0
SMALL
bcc


@<TRIPOS>ATOM
      1 C12          0.0000     0.0000     0.0000 ce         1 BY1       0.550900
      2 C13          1.3300     0.0000     0.0000 ce         1 BY1      -0.203700
      3 C14          2.0450    -0.0060    -1.2410 cg         1 BY1       0.196500
      4 N04          2.6270    -0.0010    -2.2170 n1         1 BY1      -0.298800
      5 H1          -0.7890    -0.0150     0.7430 h4         1 BY1      -0.795000
      6 H4           2.0320    -0.5270     0.6350 ha         1 BY1       0.233000
      7 S1          -0.8800     0.0000     1.5270 sy         1 BY1       1.589200
      8 O2          -1.8580    -1.0260     1.4260 o          1 BY1      -0.628300
      9 O1           0.0990     0.0430     2.5540 o          1 BY1      -0.628300
     10 C1          -1.7640     1.5220     1.6180 ca         1 BY1      -0.292500
     11 C2          -3.0490     1.6070     1.1140 ca         1 BY1      -0.022500
     12 C3          -3.7410     2.8010     1.1860 ca         1 BY1      -0.157500
     13 C4          -3.1510     3.9090     1.7640 ca         1 BY1      -0.089300
     14 C5          -1.8670     3.8250     2.2680 ca         1 BY1      -0.157500
     15 C6          -1.1750     2.6290     2.2000 ca         1 BY1      -0.022500
     16 C7          -3.9060     5.2110     1.8410 c3         1 BY1      -0.068800
     17 H2          -3.5920     0.7580     0.7190 ha         1 BY1       0.156500
     18 H3          -4.5940     3.0270     0.5570 ha         1 BY1       0.138000
     19 H5          -1.6900     4.7860     2.7360 ha         1 BY1       0.138000
     20 H6          -0.4600     2.2180     2.9030 ha         1 BY1       0.156500
     21 H7          -4.0790     5.4440     2.8840 hc         1 BY1       0.069367
     22 H8          -4.7340     4.8330     1.2530 hc         1 BY1       0.069367
     23 H9          -3.0770     5.7090     1.3520 hc         1 BY1       0.069367
@<TRIPOS>BOND
     1     4     3 3
     2     3     2 1
     3     2     1 2
     4     1     5 1
     5     2     6 1
     6     1     7 1
     7     7     8 2
     8     7     9 2
     9     7    10 1
    10    10    11 ar
    11    11    12 ar
    12    12    13 ar
    13    13    14 ar
    14    14    15 ar
    15    15    10 ar
    16    13    16 1
    17    11    17 1
    18    12    18 1
    19    14    19 1
    20    15    20 1
    21    16    21 1
    22    16    22 1
    23    16    23 1
@<TRIPOS>SUBSTRUCTURE
     1 BY1         1 TEMP              0 ****  ****    0 ROOT
