@<TRIPOS>MOLECULE
BY1
   23    23     1     0     0
SMALL
bcc


@<TRIPOS>ATOM
      1 C12          0.0000     0.0000     0.0000 ce         1 BY1      -0.167100
      2 C13          1.3300     0.0000     0.0000 cf         1 BY1       0.175300
      3 C14          2.0450    -0.0060    -1.2410 ch         1 BY1       0.143500
      4 N04          2.6170    -0.0310    -2.2230 n1         1 BY1      -0.343800
      5 H1          -0.5420    -0.0050    -0.9380 h4         1 BY1       0.150000
      6 H4           1.8720     0.0050     0.9380 ha         1 BY1       0.143000
      7 S1          -0.8800     0.0000     1.5270 sy         1 BY1       0.950200
      8 O2          -1.8580    -1.0260     1.4260 o          1 BY1      -0.588800
      9 O1           0.0990     0.0430     2.5540 o          1 BY1      -0.588800
     10 C1          -1.7640     1.5220     1.6180 ca         1 BY1      -0.157500
     11 C2          -3.0490     1.6070     1.1140 ca         1 BY1       0.008000
     12 C3          -3.7410     2.8010     1.1860 ca         1 BY1      -0.133000
     13 C4          -3.1510     3.9090     1.7640 ca         1 BY1      -0.032300
     14 C5          -1.8670     3.8250     2.2680 ca         1 BY1      -0.133000
     15 C6          -1.1750     2.6290     2.2000 ca         1 BY1       0.008000
     16 C7          -3.9060     5.2110     1.8410 c3         1 BY1       0.055200
     17 H2          -3.5120     0.7380     0.6620 ha         1 BY1       0.122000
     18 H3          -4.7480     2.8680     0.7910 ha         1 BY1       0.113500
     19 H5          -1.4040     4.6940     2.7210 ha         1 BY1       0.113500
     20 H6          -0.1700     2.5610     2.6000 ha         1 BY1       0.122000
     21 H7          -3.7230     5.7880     0.9420 hc         1 BY1       0.013033
     22 H8          -3.5710     5.7730     2.7040 hc         1 BY1       0.013033
     23 H9          -4.9660     5.0090     1.9300 hc         1 BY1       0.013033
@<TRIPOS>BOND
     1     1     2 2   
     2     1     5 1   
     3     1     7 1   
     4     2     3 1   
     5     2     6 1   
     6     3     4 3   
     7     7     8 2   
     8     7     9 2   
     9     7    10 1   
    10    10    11 ar  
    11    10    15 ar  
    12    11    12 ar  
    13    11    17 1   
    14    12    13 ar  
    15    12    18 1   
    16    13    14 ar  
    17    13    16 1   
    18    14    15 ar  
    19    14    19 1   
    20    15    20 1   
    21    16    21 1   
    22    16    22 1   
    23    16    23 1   
@<TRIPOS>SUBSTRUCTURE
     1 BY1         1 TEMP              0 ****  ****    0 ROOT
