@<TRIPOS>MOLECULE
molecule
   41    41     1     0     0
SMALL
bcc


@<TRIPOS>ATOM
      1 C10          0.0000     0.0000     0.0000 c3         1 BY2       0.149100
      2 C11          6.2720     2.3420    -1.0040 c          1 BY2       0.746100
      3 C12          7.0630     4.3570    -2.1200 c3         1 BY2       0.127000
      4 C13          8.2610     4.8720    -1.3190 c3         1 BY2      -0.118100
      5 C14          7.6870     2.0480    -2.9660 c3         1 BY2       0.100300
      6 C01          4.2240    -0.5070     2.4000 ca         1 BY2       0.129100
      7 C02          5.6110    -0.5080     2.3630 ca         1 BY2      -0.203000
      8 C03          6.2720    -0.0040     1.2610 ca         1 BY2      -0.095000
      9 C04          5.5500     0.5040     0.1910 ca         1 BY2       0.087100
     10 C05          4.1640     0.5050     0.2280 ca         1 BY2      -0.073000
     11 C06          3.5020    -0.0000     1.3310 ca         1 BY2      -0.098300
     12 C07          1.9950     0.0000     1.3710 c3         1 BY2       0.224800
     13 C08          1.5060     1.2490     2.1060 c3         1 BY2      -0.083100
     14 C09          1.9950    -1.1380    -0.7660 c3         1 BY2       0.149100
     15 N01          1.4680     0.0000     0.0000 n3         1 BY2      -0.735600
     16 N02          6.9870     2.9000    -2.0010 n          1 BY2      -0.482800
     17 O01          6.2010     1.0010    -0.8950 os         1 BY2      -0.348200
     18 O02          3.5730    -1.0100     3.4830 oh         1 BY2      -0.502100
     19 O03          5.6910     3.0480    -0.2040 o          1 BY2      -0.589000
     20 H1          -0.3610    -0.7410     0.7030 h1         1 BY2       0.033200
     21 H2          -0.3610    -0.2380    -0.9930 h1         1 BY2       0.033200
     22 H3          -0.3610     0.9790     0.2900 h1         1 BY2       0.033200
     23 H4           7.1910     4.6140    -3.1650 h1         1 BY2       0.060200
     24 H5           6.1550     4.8120    -1.7450 h1         1 BY2       0.060200
     25 H6           9.1100     4.2200    -1.4790 hc         1 BY2       0.043700
     26 H7           8.5090     5.8750    -1.6450 hc         1 BY2       0.043700
     27 H8           8.0100     4.8880    -0.2650 hc         1 BY2       0.043700
     28 H9           8.1770     2.6690    -3.7060 h1         1 BY2       0.042033
     29 H10          6.9740     1.3960    -3.4560 h1         1 BY2       0.042033
     30 H11          8.4270     1.4500    -2.4490 h1         1 BY2       0.042033
     31 H12          6.1750    -0.9050     3.1980 ha         1 BY2       0.135000
     32 H13          7.3550    -0.0050     1.2320 ha         1 BY2       0.140000
     33 H14          3.6000     0.9010    -0.6080 ha         1 BY2       0.171000
     34 H15          1.6480    -0.8840     1.8920 h1         1 BY2       0.040700
     35 H16          2.2060     1.5040     2.8920 hc         1 BY2       0.044367
     36 H17          0.5320     1.0550     2.5390 hc         1 BY2       0.044367
     37 H18          1.4320     2.0740     1.4060 hc         1 BY2       0.044367
     38 H19          2.6980    -1.6910    -0.1540 h1         1 BY2       0.033200
     39 H20          1.1780    -1.7890    -1.0540 h1         1 BY2       0.033200
     40 H21          2.4970    -0.7750    -1.6540 h1         1 BY2       0.033200
     41 H23          4.0900    -1.6980     3.8700 ho         1 BY2       0.421000
@<TRIPOS>BOND
     1    13    12 1
     2    14    15 1
     3    12    15 1
     4    12    11 1
     5    15     1 1
     6    18     6 1
     7    11     6 ar
     8    11    10 ar
     9     6     7 ar
    10    10     9 ar
    11     7     8 ar
    12     9     8 ar
    13     9    17 1
    14    19     2 2
    15    17     2 1
    16     2    16 1
    17    16     3 1
    18    16     5 1
    19     3     4 1
    20     1    20 1
    21     1    21 1
    22     1    22 1
    23     3    23 1
    24     3    24 1
    25     4    25 1
    26     4    26 1
    27     4    27 1
    28     5    28 1
    29     5    29 1
    30     5    30 1
    31     7    31 1
    32     8    32 1
    33    10    33 1
    34    12    34 1
    35    13    35 1
    36    13    36 1
    37    13    37 1
    38    14    38 1
    39    14    39 1
    40    14    40 1
    41    18    41 1
@<TRIPOS>SUBSTRUCTURE
     1 BY2         1 TEMP              0 ****  ****    0 ROOT
