@<TRIPOS>MOLECULE
molecule
   23    24     1     0     0
SMALL
bcc


@<TRIPOS>ATOM
      1 C01          0.0000     0.0000     0.0000 c3         1 BY4      -0.065800
      2 C02          1.5070     0.0000     0.0000 ca         1 BY4      -0.014300
      3 C03          2.2010     0.0000     1.1980 ca         1 BY4      -0.131000
      4 C04          3.5830    -0.0000     1.1930 ca         1 BY4      -0.043000
      5 C05          4.2760    -0.0020     0.0000 ca         1 BY4      -0.138000
      6 C06          3.5850    -0.0030    -1.2100 ca         1 BY4       0.077600
      7 C07          2.1960    -0.0070    -1.1910 ca         1 BY4      -0.244300
      8 C08          1.7520    -0.0130    -2.6360 c3         1 BY4       0.076800
      9 C09          3.0470    -0.0190    -3.4190 c          1 BY4       0.688500
     10 N10          4.0500    -0.0040    -2.5260 ns         1 BY4      -0.438100
     11 O11          3.1580    -0.0250    -4.6270 o          1 BY4      -0.544500
     12 N12          0.9700     1.1930    -2.9400 nz         1 BY4      -0.796600
     13 H011        -0.3610    -0.3100     0.9730 hc         1 BY4       0.055367
     14 H012        -0.3610    -0.6880    -0.7550 hc         1 BY4       0.055367
     15 H013        -0.3610     0.9980    -0.2180 hc         1 BY4       0.055367
     16 H03          1.6610     0.0010     2.1380 ha         1 BY4       0.166000
     17 H04          4.1250    -0.0000     2.1310 ha         1 BY4       0.168000
     18 H05          5.3600    -0.0020     0.0040 ha         1 BY4       0.163000
     19 H10          5.0190    -0.0030    -2.7750 hn         1 BY4       0.376500
     20 H08          1.1790    -0.9070    -2.8500 hx         1 BY4       0.147700
     21 H121         0.0140     1.0450    -2.6830 hn         1 BY4       0.461800
     22 H122         1.0260     1.3880    -3.9200 hn         1 BY4       0.461800
     23 H123         1.3380     1.9680    -2.4240 hn         1 BY4       0.461800
@<TRIPOS>BOND
     1     1     2 1
     2     2     3 ar
     3     2     7 ar
     4     3     4 ar
     5     4     5 ar
     6     5     6 ar
     7     6     7 ar
     8     6    10 1
     9     7     8 1
    10     8     9 1
    11     8    12 1
    12     9    10 1
    13     9    11 2
    14     1    13 1
    15     1    14 1
    16     1    15 1
    17     3    16 1
    18     4    17 1
    19     5    18 1
    20    10    19 1
    21     8    20 1
    22    12    21 1
    23    12    22 1
    24    23    12 1
@<TRIPOS>SUBSTRUCTURE
     1 BY4         1 TEMP              0 ****  ****    0 ROOT
