@<TRIPOS>MOLECULE
molecule
   19    19     1     0     0
SMALL
bcc


@<TRIPOS>ATOM
      1 C4           0.0000     0.0000     0.0000 ca         1 BY5       0.141900
      2 C5           1.3810     0.0000     0.0000 ca         1 BY5      -0.174000
      3 C6           2.0780     0.0000     1.1950 ca         1 BY5      -0.143000
      4 C7           1.3990     0.0000     2.4030 ca         1 BY5       0.069900
      5 C8           0.0160     0.0010     2.4220 ca         1 BY5       0.146900
      6 C           -4.2980     0.9420     1.9740 c          1 BY5       0.872800
      7 O           -4.9040    -0.0180     1.5380 o          1 BY5      -0.819800
      8 C1          -2.8390     1.0120     1.8380 ce         1 BY5       0.064400
      9 C3          -0.6970     0.0060     1.2160 ca         1 BY5      -0.066800
     10 F           -0.6780    -0.0000    -1.1680 f          1 BY5      -0.130900
     11 F1          -0.6460     0.0030     3.6000 f          1 BY5      -0.102900
     12 F2           2.0890    -0.0040     3.5640 f          1 BY5      -0.140900
     13 O1          -4.9690     1.9420     2.5830 o          1 BY5      -0.819800
     14 S           -1.9610     2.4040     2.4690 sh         1 BY5      -0.421400
     15 H1           1.9210    -0.0020    -0.9390 ha         1 BY5       0.138000
     16 H2           3.1610    -0.0000     1.1860 ha         1 BY5       0.139000
     17 H3          -2.7090    -0.8460     0.8370 ha         1 BY5       0.176000
     18 H5          -2.2670     3.4800     1.7550 hs         1 BY5       0.209800
     19 C2          -2.1670     0.0080     1.2250 cf         1 BY5      -0.140200
@<TRIPOS>BOND
     1    12     4 1
     2    11     5 1
     3    14     8 1
     4     4     5 ar
     5     4     3 ar
     6     5     9 ar
     7     7     6 1
     8     8     6 1
     9     8    19 2
    10     3     2 ar
    11     6    13 1
    12     9    19 1
    13     9     1 ar
    14     2     1 ar
    15     1    10 1
    16     2    15 1
    17     3    16 1
    18    19    17 1
    19    14    18 1
@<TRIPOS>SUBSTRUCTURE
     1 BY5         1 TEMP              0 ****  ****    0 ROOT
