@<TRIPOS>MOLECULE
BY7
   52    53     1     0     0
SMALL
bcc


@<TRIPOS>ATOM
      1 F20          0.0000     0.0000     0.0000 f          1 BY7      -0.208967
      2 C17          1.3990     0.0000     0.0000 c3         1 BY7       0.640200
      3 F18          1.8660     0.0000     1.3180 f          1 BY7      -0.208967
      4 F19          1.8650    -1.1420    -0.6590 f          1 BY7      -0.208967
      5 C13          1.9010     1.2300    -0.7120 ca         1 BY7      -0.207300
      6 C14          2.1320     2.3940    -0.0010 ca         1 BY7      -0.045000
      7 C15          2.5910     3.5220    -0.6530 ca         1 BY7      -0.091300
      8 C21          2.8430     4.7900     0.1210 c3         1 BY7       0.031900
      9 C22          4.2890     4.8030     0.6230 c3         1 BY7      -0.034400
     10 C23          4.5430     6.0910     1.4090 c3         1 BY7       0.152800
     11 N24          5.9310     6.1040     1.8910 n3         1 BY7      -0.545600
     12 C26          6.8770     6.1860     0.7700 c3         1 BY7       0.182100
     13 C25          6.1470     7.2010     2.8430 c3         1 BY7       0.182100
     14 C12          2.1360     1.1940    -2.0720 ca         1 BY7      -0.047000
     15 C11          2.5980     2.3220    -2.7250 ca         1 BY7      -0.092300
     16 C16          2.8220     3.4860    -2.0160 ca         1 BY7      -0.062000
     17 C09          2.8540     2.2830    -4.2100 c3         1 BY7       0.030900
     18 C08          1.5820     2.6820    -4.9580 c3         1 BY7      -0.066700
     19 C06          1.8380     2.6430    -6.4430 ca         1 BY7       0.381600
     20 N01          2.8390     3.3360    -6.9490 nb         1 BY7      -0.592000
     21 C02          3.1020     3.3310    -8.2470 ca         1 BY7       0.502200
     22 N02          4.1670     4.0770    -8.7380 nv         1 BY7      -0.659500
     23 C03          2.3210     2.5830    -9.1240 ca         1 BY7      -0.230300
     24 C04          1.2650     1.8450    -8.6220 ca         1 BY7      -0.051300
     25 C05          1.0270     1.8750    -7.2550 ca         1 BY7      -0.222300
     26 C07          0.3950     1.0230    -9.5380 c3         1 BY7       0.062200
     27 H1           1.9190     2.4310     1.0600 ha         1 BY7       0.121000
     28 H2           2.6770     5.6450    -0.5230 hc         1 BY7       0.019700
     29 H3           2.1670     4.8380     0.9660 hc         1 BY7       0.019700
     30 H4           4.4550     3.9480     1.2670 hc         1 BY7       0.027200
     31 H5           4.9650     4.7560    -0.2220 hc         1 BY7       0.027200
     32 H6           4.3770     6.9460     0.7650 h1         1 BY7       0.008200
     33 H7           3.8670     6.1380     2.2540 h1         1 BY7       0.008200
     34 H9           7.7940     6.6550     1.1050 h1         1 BY7       0.001200
     35 H10          7.0940     5.1880     0.4070 h1         1 BY7       0.001200
     36 H11          6.4410     6.7740    -0.0280 h1         1 BY7       0.001200
     37 H12          7.1780     7.1900     3.1780 h1         1 BY7       0.001200
     38 H13          5.4900     7.0750     3.6950 h1         1 BY7       0.001200
     39 H14          5.9340     8.1460     2.3590 h1         1 BY7       0.001200
     40 H15          1.9600     0.2810    -2.6280 ha         1 BY7       0.120000
     41 H16          3.1830     4.3710    -2.5280 ha         1 BY7       0.115000
     42 H17          3.6500     2.9740    -4.4580 hc         1 BY7       0.030200
     43 H18          3.1440     1.2800    -4.5000 hc         1 BY7       0.030200
     44 H19          1.2920     3.6850    -4.6680 hc         1 BY7       0.024200
     45 H20          0.7850     1.9900    -4.7110 hc         1 BY7       0.024200
     46 H21          4.0300     5.0340    -8.9970 hn         1 BY7       0.275800
     47 H22          5.0730     3.6610    -8.8200 hn         1 BY7       0.275800
     48 H23          2.5360     2.5820   -10.1860 ha         1 BY7       0.121000
     49 H24          0.2070     1.3080    -6.8300 ha         1 BY7       0.119000
     50 H25         -0.6450     1.1610    -9.2690 hc         1 BY7       0.011033
     51 H26          0.5480     1.3410   -10.5630 hc         1 BY7       0.011033
     52 H27          0.6570    -0.0240    -9.4420 hc         1 BY7       0.011033
@<TRIPOS>BOND
     1     1     2 1   
     2     2     3 1   
     3     2     4 1   
     4     2     5 1   
     5     5     6 ar  
     6     5    14 ar  
     7     6     7 ar  
     8     6    27 1   
     9     7     8 1   
    10     7    16 ar  
    11     8     9 1   
    12     8    28 1   
    13     8    29 1   
    14     9    10 1   
    15     9    30 1   
    16     9    31 1   
    17    10    11 1   
    18    10    32 1   
    19    10    33 1   
    20    11    12 1   
    21    11    13 1   
    22    12    34 1   
    23    12    35 1   
    24    12    36 1   
    25    13    37 1   
    26    13    38 1   
    27    13    39 1   
    28    14    15 ar  
    29    14    40 1   
    30    15    16 ar  
    31    15    17 1   
    32    16    41 1   
    33    17    18 1   
    34    17    42 1   
    35    17    43 1   
    36    18    19 1   
    37    18    44 1   
    38    18    45 1   
    39    19    20 ar  
    40    19    25 ar  
    41    20    21 ar  
    42    21    22 1   
    43    21    23 ar  
    44    22    46 1   
    45    22    47 1   
    46    23    24 ar  
    47    23    48 1   
    48    24    25 ar  
    49    24    26 1   
    50    25    49 1   
    51    26    50 1   
    52    26    51 1   
    53    26    52 1   
@<TRIPOS>SUBSTRUCTURE
     1 BY7         1 TEMP              0 ****  ****    0 ROOT
