@<TRIPOS>MOLECULE
molecule
   52    53     1     0     0
SMALL
bcc


@<TRIPOS>ATOM
      1 F20          0.0000     0.0000     0.0000 f          1 BY7      -0.224633
      2 C17          1.3990     0.0000     0.0000 c3         1 BY7       0.674200
      3 F18          1.8660     0.0000     1.3180 f          1 BY7      -0.224633
      4 F19          1.8650    -1.1420    -0.6590 f          1 BY7      -0.224633
      5 C13          1.9010     1.2300    -0.7120 ca         1 BY7      -0.176300
      6 C14          2.1320     2.3940    -0.0010 ca         1 BY7      -0.083000
      7 C15          2.5910     3.5220    -0.6530 ca         1 BY7      -0.082300
      8 C21          2.8430     4.7900     0.1210 c3         1 BY7      -0.037100
      9 C22          4.2890     4.8030     0.6230 c3         1 BY7      -0.078400
     10 C23          4.5430     6.0910     1.4090 c3         1 BY7       0.161800
     11 N24          5.9310     6.1040     1.8910 n3         1 BY7      -0.731600
     12 C26          6.8770     6.1860     0.7700 c3         1 BY7       0.150600
     13 C25          6.1470     7.2010     2.8430 c3         1 BY7       0.150600
     14 C12          2.1360     1.1940    -2.0720 ca         1 BY7      -0.086000
     15 C11          2.5980     2.3220    -2.7250 ca         1 BY7      -0.085300
     16 C16          2.8220     3.4860    -2.0160 ca         1 BY7      -0.095000
     17 C09          2.8540     2.2830    -4.2100 c3         1 BY7      -0.030100
     18 C08          1.5820     2.6820    -4.9580 c3         1 BY7      -0.120700
     19 C06          1.8380     2.6430    -6.4430 ca         1 BY7       0.437600
     20 N01          2.8390     3.3360    -6.9490 nb         1 BY7      -0.721000
     21 C02          3.1020     3.3310    -8.2470 ca         1 BY7       0.684200
     22 N02          4.1670     4.0770    -8.7380 nv         1 BY7      -1.084500
     23 C03          2.3210     2.5830    -9.1240 ca         1 BY7      -0.262300
     24 C04          1.2650     1.8450    -8.6220 ca         1 BY7      -0.042300
     25 C05          1.0270     1.8750    -7.2550 ca         1 BY7      -0.258300
     26 C07          0.3950     1.0230    -9.5380 c3         1 BY7      -0.050800
     27 H1           1.9190     2.4310     1.0600 ha         1 BY7       0.147000
     28 H2           2.6770     5.6450    -0.5230 hc         1 BY7       0.050700
     29 H3           2.1670     4.8380     0.9660 hc         1 BY7       0.050700
     30 H4           4.4550     3.9480     1.2670 hc         1 BY7       0.055200
     31 H5           4.9650     4.7560    -0.2220 hc         1 BY7       0.055200
     32 H6           4.3770     6.9460     0.7650 h1         1 BY7       0.032700
     33 H7           3.8670     6.1380     2.2540 h1         1 BY7       0.032700
     34 H9           7.7940     6.6550     1.1050 h1         1 BY7       0.032200
     35 H10          7.0940     5.1880     0.4070 h1         1 BY7       0.032200
     36 H11          6.4410     6.7740    -0.0280 h1         1 BY7       0.032200
     37 H12          7.1780     7.1900     3.1780 h1         1 BY7       0.032200
     38 H13          5.4900     7.0750     3.6950 h1         1 BY7       0.032200
     39 H14          5.9340     8.1460     2.3590 h1         1 BY7       0.032200
     40 H15          1.9600     0.2810    -2.6280 ha         1 BY7       0.146000
     41 H16          3.1830     4.3710    -2.5280 ha         1 BY7       0.141000
     42 H17          3.6500     2.9740    -4.4580 hc         1 BY7       0.063700
     43 H18          3.1440     1.2800    -4.5000 hc         1 BY7       0.063700
     44 H19          1.2920     3.6850    -4.6680 hc         1 BY7       0.057700
     45 H20          0.7850     1.9900    -4.7110 hc         1 BY7       0.057700
     46 H21          4.0300     5.0340    -8.9970 hn         1 BY7       0.435300
     47 H22          5.0730     3.6610    -8.8200 hn         1 BY7       0.435300
     48 H23          2.5360     2.5820   -10.1860 ha         1 BY7       0.143000
     49 H24          0.2070     1.3080    -6.8300 ha         1 BY7       0.139000
     50 H25         -0.6450     1.1610    -9.2690 hc         1 BY7       0.048033
     51 H26          0.5480     1.3410   -10.5630 hc         1 BY7       0.048033
     52 H27          0.6570    -0.0240    -9.4420 hc         1 BY7       0.048033
@<TRIPOS>BOND
     1    26    24 1
     2    24    23 ar
     3    24    25 ar
     4    23    21 ar
     5    25    19 ar
     6    21    22 1
     7    21    20 ar
     8    19    20 ar
     9    19    18 1
    10    17    18 1
    11    17    15 1
    12    16    15 ar
    13    16     7 ar
    14    15    14 ar
    15     8     7 1
    16     8     9 1
    17     7     6 ar
    18    13    11 1
    19     9    10 1
    20    14     5 ar
    21    10    11 1
    22    11    12 1
    23     6     5 ar
    24     5     2 1
    25     4     2 1
    26     2     1 1
    27     2     3 1
    28     6    27 1
    29     8    28 1
    30     8    29 1
    31     9    30 1
    32     9    31 1
    33    10    32 1
    34    10    33 1
    35    12    34 1
    36    12    35 1
    37    12    36 1
    38    13    37 1
    39    13    38 1
    40    13    39 1
    41    14    40 1
    42    16    41 1
    43    17    42 1
    44    17    43 1
    45    18    44 1
    46    18    45 1
    47    22    46 1
    48    22    47 1
    49    23    48 1
    50    25    49 1
    51    26    50 1
    52    26    51 1
    53    26    52 1
@<TRIPOS>SUBSTRUCTURE
     1 BY7         1 TEMP              0 ****  ****    0 ROOT
