@<TRIPOS>MOLECULE
BY8
   48    52     1     0     0
SMALL
bcc


@<TRIPOS>ATOM
      1 C10          0.0000     0.0000     0.0000 cx         1 BY8      -0.116900
      2 C11          1.5300     0.0000     0.0000 cx         1 BY8      -0.116900
      3 C12          0.8640    -1.2180     3.5140 cc         1 BY8       0.001800
      4 C23         -0.5400    -0.6450     6.5820 ca         1 BY8      -0.087000
      5 C24         -1.1100     0.2450     5.6550 ca         1 BY8      -0.021000
      6 C13          0.9670     0.1050     4.2270 c3         1 BY8       0.071100
      7 C14         -0.4170     0.6380     4.4990 ca         1 BY8      -0.056300
      8 C16         -2.2790     2.0040     3.8570 ca         1 BY8      -0.096000
      9 C17         -2.9810     1.6460     4.9680 ca         1 BY8      -0.093300
     10 C18         -4.3630     2.2010     5.2030 c3         1 BY8       0.065200
     11 C19         -2.4110     0.7570     5.8940 ca         1 BY8      -0.026000
     12 C20         -3.1050     0.3630     7.0510 ca         1 BY8      -0.107000
     13 C21         -2.5210    -0.5020     7.9240 ca         1 BY8      -0.100000
     14 C22         -1.2420    -1.0050     7.6900 ca         1 BY8      -0.104000
     15 C25          0.8610    -2.4030     4.2210 cd         1 BY8      -0.265200
     16 C26          0.7650    -3.6120     3.5380 c          1 BY8       0.605700
     17 C04          0.5610    -4.8920     1.3920 c3         1 BY8      -0.149300
     18 C05          0.4540    -4.6310    -0.1090 c3         1 BY8       0.112700
     19 S06          0.5150    -2.8210    -0.2510 ss         1 BY8      -0.364700
     20 C07          0.6650    -2.4960     1.4820 cd         1 BY8       0.054200
     21 C08          0.7650    -1.2750     2.1280 cc         1 BY8      -0.154200
     22 C09          0.7650     0.0000     1.3240 cx         1 BY8      -0.041500
     23 C15         -1.0020     1.5020     3.6230 ca         1 BY8      -0.112000
     24 N28          0.6720    -3.6630     2.1750 n          1 BY8       0.188000
     25 H101        -0.4670    -0.9390    -0.2700 hc         1 BY8       0.059700
     26 H102        -0.4670     0.9390    -0.2700 hc         1 BY8       0.059700
     27 H112         1.9980    -0.9390    -0.2700 hc         1 BY8       0.059700
     28 H111         1.9980     0.9390    -0.2700 hc         1 BY8       0.059700
     29 H231         0.4530    -1.0440     6.4130 ha         1 BY8       0.130000
     30 H131         1.4930    -0.0290     5.1640 hc         1 BY8       0.027200
     31 H132         1.5090     0.8090     3.6060 hc         1 BY8       0.027200
     32 H161        -2.7210     2.6910     3.1450 ha         1 BY8       0.098000
     33 H182        -4.3770     2.7520     6.1360 hc         1 BY8       0.004700
     34 H181        -4.6280     2.8650     4.3880 hc         1 BY8       0.004700
     35 H183        -5.0750     1.3870     5.2530 hc         1 BY8       0.004700
     36 H201        -4.1000     0.7450     7.2460 ha         1 BY8       0.104000
     37 H211        -3.0590    -0.8040     8.8150 ha         1 BY8       0.093000
     38 H221        -0.8010    -1.6910     8.4020 ha         1 BY8       0.102000
     39 H251         1.0490    -2.3980     5.2880 ha         1 BY8       0.131000
     40 H041        -0.3220    -5.4300     1.7140 h1         1 BY8       0.060700
     41 H051         1.3040    -5.0680    -0.6180 h1         1 BY8       0.065200
     42 H052        -0.4980    -4.9960    -0.4770 h1         1 BY8       0.065200
     43 H091         0.7650     0.9480     1.8480 hc         1 BY8       0.058700
     44 H151        -0.4650     1.8030     2.7320 ha         1 BY8       0.116000
     45 C02          1.7770    -5.7450     1.6500 c          1 BY8       0.975600
     46 O27          0.7640    -4.6550     4.1730 o          1 BY8      -0.672500
     47 O01          2.6550    -5.3400     2.3760 o          1 BY8      -0.860300
     48 O03          1.8840    -6.9530     1.0760 o          1 BY8      -0.860300
@<TRIPOS>BOND
     1     1     2 1   
     2     1    22 1   
     3     1    25 1   
     4     1    26 1   
     5     2    22 1   
     6     2    27 1   
     7     2    28 1   
     8     3     6 1   
     9     3    15 2   
    10     3    21 1   
    11     4     5 ar  
    12     4    14 ar  
    13     4    29 1   
    14     5     7 ar  
    15     5    11 ar  
    16     6     7 1   
    17     6    30 1   
    18     6    31 1   
    19     7    23 ar  
    20     8     9 ar  
    21     8    23 ar  
    22     8    32 1   
    23     9    10 1   
    24     9    11 ar  
    25    10    33 1   
    26    10    34 1   
    27    10    35 1   
    28    11    12 ar  
    29    12    13 ar  
    30    12    36 1   
    31    13    14 ar  
    32    13    37 1   
    33    14    38 1   
    34    15    16 1   
    35    15    39 1   
    36    16    24 1   
    37    16    46 2   
    38    17    18 1   
    39    17    24 1   
    40    17    40 1   
    41    17    45 1   
    42    18    19 1   
    43    18    41 1   
    44    18    42 1   
    45    19    20 1   
    46    20    21 2   
    47    20    24 1   
    48    21    22 1   
    49    22    43 1   
    50    23    44 1   
    51    45    47 1   
    52    45    48 1   
@<TRIPOS>SUBSTRUCTURE
     1 BY8         1 TEMP              0 ****  ****    0 ROOT
