@<TRIPOS>MOLECULE
molecule
   48    52     1     0     0
SMALL
bcc


@<TRIPOS>ATOM
      1 C10          0.0000     0.0000     0.0000 cx         1 BY8      -0.152900
      2 C11          1.5300     0.0000     0.0000 cx         1 BY8      -0.152900
      3 C12          0.8640    -1.2180     3.5140 cc         1 BY8       0.016800
      4 C23         -0.5400    -0.6450     6.5820 ca         1 BY8      -0.103000
      5 C24         -1.1100     0.2450     5.6550 ca         1 BY8      -0.024000
      6 C13          0.9670     0.1050     4.2270 c3         1 BY8       0.003100
      7 C14         -0.4170     0.6380     4.4990 ca         1 BY8      -0.053300
      8 C16         -2.2790     2.0040     3.8570 ca         1 BY8      -0.121000
      9 C17         -2.9810     1.6460     4.9680 ca         1 BY8      -0.085300
     10 C18         -4.3630     2.2010     5.2030 c3         1 BY8      -0.043800
     11 C19         -2.4110     0.7570     5.8940 ca         1 BY8      -0.029000
     12 C20         -3.1050     0.3630     7.0510 ca         1 BY8      -0.127000
     13 C21         -2.5210    -0.5020     7.9240 ca         1 BY8      -0.126000
     14 C22         -1.2420    -1.0050     7.6900 ca         1 BY8      -0.131000
     15 C25          0.8610    -2.4030     4.2210 cd         1 BY8      -0.280200
     16 C26          0.7650    -3.6120     3.5380 c          1 BY8       0.705700
     17 C04          0.5610    -4.8920     1.3920 c3         1 BY8      -0.030300
     18 C05          0.4540    -4.6310    -0.1090 c3         1 BY8       0.020700
     19 S06          0.5150    -2.8210    -0.2510 ss         1 BY8      -0.302700
     20 C07          0.6650    -2.4960     1.4820 cd         1 BY8       0.215200
     21 C08          0.7650    -1.2750     2.1280 cc         1 BY8      -0.179200
     22 C09          0.7650     0.0000     1.3240 cx         1 BY8      -0.063500
     23 C15         -1.0020     1.5020     3.6230 ca         1 BY8      -0.126000
     24 N28          0.6720    -3.6630     2.1750 n          1 BY8      -0.273000
     25 H101        -0.4670    -0.9390    -0.2700 hc         1 BY8       0.079200
     26 H102        -0.4670     0.9390    -0.2700 hc         1 BY8       0.079200
     27 H112         1.9980    -0.9390    -0.2700 hc         1 BY8       0.079200
     28 H111         1.9980     0.9390    -0.2700 hc         1 BY8       0.079200
     29 H231         0.4530    -1.0440     6.4130 ha         1 BY8       0.147000
     30 H131         1.4930    -0.0290     5.1640 hc         1 BY8       0.056200
     31 H132         1.5090     0.8090     3.6060 hc         1 BY8       0.056200
     32 H161        -2.7210     2.6910     3.1450 ha         1 BY8       0.122000
     33 H182        -4.3770     2.7520     6.1360 hc         1 BY8       0.038367
     34 H181        -4.6280     2.8650     4.3880 hc         1 BY8       0.038367
     35 H183        -5.0750     1.3870     5.2530 hc         1 BY8       0.038367
     36 H201        -4.1000     0.7450     7.2460 ha         1 BY8       0.125000
     37 H211        -3.0590    -0.8040     8.8150 ha         1 BY8       0.119000
     38 H221        -0.8010    -1.6910     8.4020 ha         1 BY8       0.129000
     39 H251         1.0490    -2.3980     5.2880 ha         1 BY8       0.148000
     40 H041        -0.3220    -5.4300     1.7140 h1         1 BY8       0.082700
     41 H051         1.3040    -5.0680    -0.6180 h1         1 BY8       0.090200
     42 H052        -0.4980    -4.9960    -0.4770 h1         1 BY8       0.090200
     43 H091         0.7650     0.9480     1.8480 hc         1 BY8       0.073700
     44 H151        -0.4650     1.8030     2.7320 ha         1 BY8       0.134000
     45 C02          1.7770    -5.7450     1.6500 c          1 BY8       0.890600
     46 O27          0.7640    -4.6550     4.1730 o          1 BY8      -0.627500
     47 O01          2.6550    -5.3400     2.3760 o          1 BY8      -0.812800
     48 O03          1.8840    -6.9530     1.0760 o          1 BY8      -0.812800
@<TRIPOS>BOND
     1     2     1 1
     2     2    22 1
     3    23     8 ar
     4    23     7 ar
     5     8     9 ar
     6     1    22 1
     7    22    21 1
     8     6     7 1
     9     6     3 1
    10     7     5 ar
    11     9    10 1
    12     9    11 ar
    13     5    11 ar
    14     5     4 ar
    15    21     3 1
    16    21    20 2
    17    11    12 ar
    18     3    15 2
    19     4    14 ar
    20    12    13 ar
    21    20    19 1
    22    20    24 1
    23    19    18 1
    24    15    16 1
    25    14    13 ar
    26    24    16 1
    27    24    17 1
    28    16    46 2
    29    18    17 1
    30    17    45 1
    31    47    45 1
    32    45    48 1
    33     1    25 1
    34     1    26 1
    35     2    27 1
    36     2    28 1
    37     4    29 1
    38     6    30 1
    39     6    31 1
    40     8    32 1
    41    10    33 1
    42    10    34 1
    43    10    35 1
    44    12    36 1
    45    13    37 1
    46    14    38 1
    47    15    39 1
    48    17    40 1
    49    18    41 1
    50    18    42 1
    51    22    43 1
    52    23    44 1
@<TRIPOS>SUBSTRUCTURE
     1 BY8         1 TEMP              0 ****  ****    0 ROOT
