@<TRIPOS>MOLECULE
BYA
   25    25     1     0     0
SMALL
bcc


@<TRIPOS>ATOM
      1 C2          2.9960    0.5490   -0.7030 c         1 BYA      0.626100
      2 C4          1.8950    0.1120    0.2140 c3        1 BYA     -0.194400
      3 C5          2.4310   -0.2850    1.5940 c3        1 BYA      0.089000
      4 N6          3.1420   -1.5290    1.5950 n         1 BYA     -0.586900
      5 C7          4.3640   -1.7400    2.2270 c         1 BYA      0.670700
      6 C9          5.2400   -0.5880    2.5680 ca        1 BYA     -0.146600
      7 C14         5.6060    0.3590    1.6060 ca        1 BYA     -0.093500
      8 C13         6.6130    0.5400    4.2060 ca        1 BYA     -0.133500
      9 C12         6.9730    1.4890    3.2490 ca        1 BYA     -0.108000
     10 C11         6.4730    1.3950    1.9500 ca        1 BYA     -0.133500
     11 C10         5.7520   -0.5030    3.8680 ca        1 BYA     -0.093500
     12 O8          4.7010   -2.9170    2.4590 o         1 BYA     -0.585100
     13 O3          3.2850    1.7090   -1.0000 o         1 BYA     -0.492000
     14 O1          3.7920   -0.3820   -1.3060 oh        1 BYA     -0.581100
     15 H4          1.1870    0.9730    0.3520 hc        1 BYA      0.083200
     16 H4A         1.3260   -0.7320   -0.2570 hc        1 BYA      0.083200
     17 H5          1.5420   -0.3530    2.2890 h1        1 BYA      0.064700
     18 H5A         3.1000    0.5410    1.9730 h1        1 BYA      0.064700
     19 HN6         3.5490   -1.2710   -1.0150 ho        1 BYA      0.435000
     20 H14         5.2200    0.2850    0.5740 ha        1 BYA      0.150000
     21 H13         7.0130    0.6090    5.2290 ha        1 BYA      0.142500
     22 H12         7.6550    2.3090    3.5170 ha        1 BYA      0.137000
     23 H11         6.7620    2.1380    1.1900 ha        1 BYA      0.142500
     24 H10         5.4830   -1.2700    4.6110 ha        1 BYA      0.150000
     25 H62         2.5850   -2.3460    1.4580 hn        1 BYA      0.309500
@<TRIPOS>BOND
     1    1    2 1
     2    1   13 2
     3    1   14 1
     4    2    3 1
     5    2   15 1
     6    2   16 1
     7    3    4 1
     8    3   17 1
     9    3   18 1
    10    4    5 1
    11    4   25 1
    12    5    6 1
    13    5   12 2
    14    6    7 ar
    15    6   11 ar
    16    7   10 ar
    17    7   20 1
    18    8    9 ar
    19    8   11 ar
    20    8   21 1
    21    9   10 ar
    22    9   22 1
    23   10   23 1
    24   11   24 1
    25   14   19 1
@<TRIPOS>SUBSTRUCTURE
     1 BYA         1 TEMP              0 ****  ****    0 ROOT
