@<TRIPOS>MOLECULE
BYB
   46    50     1     0     0
SMALL
bcc


@<TRIPOS>ATOM
      1 C1           0.0000     0.0000     0.0000 ca         1 BYB      -0.092400
      2 C2           1.3900     0.0000     0.0000 ca         1 BYB       0.399200
      3 C4          -0.6790     0.0050     1.2050 ca         1 BYB      -0.010000
      4 C5           0.0730     0.0050     2.3830 ca         1 BYB      -0.315200
      5 C6           1.4780    -0.0010     2.3060 ca         1 BYB       0.240800
      6 N3           2.0770     0.0000     1.1210 nb         1 BYB      -0.581000
      7 N7           1.9440     0.0010     3.5950 na         1 BYB       0.309200
      8 N8           0.8620     0.0070     4.4810 nc         1 BYB      -0.453100
      9 C9          -0.2650     0.0100     3.8100 cd         1 BYB       0.312900
     10 C10         -1.6290     0.0170     4.3880 ca         1 BYB       0.637700
     11 N11         -1.7720     0.0200     5.7070 nb         1 BYB      -0.529000
     12 C12         -2.9810     0.0270     6.2550 ca         1 BYB       0.524200
     13 C13         -4.1050     0.0300     5.4220 ca         1 BYB      -0.258700
     14 C14         -3.9100     0.0260     4.0530 ca         1 BYB       0.439200
     15 N15         -2.6760     0.0250     3.5730 nb         1 BYB      -0.693000
     16 N16         -3.1270     0.0290     7.6350 nu         1 BYB      -0.482900
     17 C17         -1.9430     0.0250     8.4980 c3         1 BYB       0.149500
     18 C18         -2.2980     0.6390     9.8530 c3         1 BYB      -0.050700
     19 C19         -3.4100    -0.1820    10.5100 c3         1 BYB      -0.014900
     20 C20         -2.9300    -1.6210    10.7110 c3         1 BYB      -0.045900
     21 C21         -1.4990    -1.7590    10.1880 c3         1 BYB      -0.008700
     22 C22         -1.4640    -1.4130     8.6980 c3         1 BYB      -0.163700
     23 F23         -0.6820    -0.0010    -1.1660 f          1 BYB      -0.133900
     24 F24         -5.3510     0.0360     5.9430 f          1 BYB      -0.131900
     25 C25         -0.0540    -1.5500     8.1840 c          1 BYB       0.976600
     26 O26          0.8330    -1.8880     8.9320 o          1 BYB      -0.880300
     27 O27          0.2180    -1.2940     6.8950 o          1 BYB      -0.880300
     28 C28         -1.0610     0.6340    10.7540 c3         1 BYB      -0.014900
     29 C29         -0.5820    -0.8040    10.9560 c3         1 BYB      -0.045900
     30 H1           1.9200    -0.0040    -0.9450 h4         1 BYB      -0.021900
     31 H2          -1.7620     0.0050     1.2350 ha         1 BYB       0.142000
     32 H3           2.9090    -0.0020     3.8610 hn         1 BYB       0.159700
     33 H4          -4.7590     0.0300     3.3790 h4         1 BYB      -0.021900
     34 H5          -4.0420     0.0660     8.0400 hn         1 BYB       0.292800
     35 H6          -1.1560     0.6070     8.0330 h1         1 BYB       0.086700
     36 H7          -2.6380     1.6570     9.7110 hc         1 BYB       0.007700
     37 H8          -4.2860    -0.1790     9.8720 hc         1 BYB       0.001200
     38 H9          -3.6610     0.2520    11.4700 hc         1 BYB       0.001200
     39 H10         -3.5800    -2.2970    10.1680 hc         1 BYB       0.020950
     40 H11         -2.9550    -1.8650    11.7660 hc         1 BYB       0.020950
     41 H12         -1.1600    -2.7780    10.3300 hc         1 BYB       0.034700
     42 H13         -2.1130    -2.0890     8.1550 hc         1 BYB       0.030700
     43 H15         -1.3120     1.0680    11.7140 hc         1 BYB       0.001200
     44 H16         -0.2740     1.2150    10.2900 hc         1 BYB       0.001200
     45 H17         -0.6070    -1.0490    12.0100 hc         1 BYB       0.020950
     46 H18          0.4320    -0.9020    10.5860 hc         1 BYB       0.020950
@<TRIPOS>BOND
     1     1     2 ar  
     2     1     3 ar  
     3     1    23 1   
     4     2     6 ar  
     5     2    30 1   
     6     3     4 ar  
     7     3    31 1   
     8     4     5 ar  
     9     4     9 1   
    10     5     6 ar  
    11     5     7 1   
    12     7     8 1   
    13     7    32 1   
    14     8     9 2   
    15     9    10 1   
    16    10    11 ar  
    17    10    15 ar  
    18    11    12 ar  
    19    12    13 ar  
    20    12    16 1   
    21    13    14 ar  
    22    13    24 1   
    23    14    15 ar  
    24    14    33 1   
    25    16    17 1   
    26    16    34 1   
    27    17    18 1   
    28    17    22 1   
    29    17    35 1   
    30    18    19 1   
    31    18    28 1   
    32    18    36 1   
    33    19    20 1   
    34    19    37 1   
    35    19    38 1   
    36    20    21 1   
    37    20    39 1   
    38    20    40 1   
    39    21    22 1   
    40    21    29 1   
    41    21    41 1   
    42    22    25 1   
    43    22    42 1   
    44    25    26 1   
    45    25    27 1   
    46    28    29 1   
    47    28    43 1   
    48    28    44 1   
    49    29    45 1   
    50    29    46 1   
@<TRIPOS>SUBSTRUCTURE
     1 BYB         1 TEMP              0 ****  ****    0 ROOT
