@<TRIPOS>MOLECULE
molecule
   22    22     1     0     0
SMALL
bcc


@<TRIPOS>ATOM
      1 CAA          0.0000     0.0000     0.0000 ca         1 BYD      -0.096000
      2 CAB          1.3770     0.0000     0.0000 ca         1 BYD      -0.096000
      3 CAC          2.0760     0.0000     1.2080 ca         1 BYD      -0.115600
      4 CAD          1.3790     0.0000     2.4170 ca         1 BYD      -0.096000
      5 CAE          0.0010     0.0010     2.4170 ca         1 BYD      -0.096000
      6 CAF         -0.6970     0.0070     1.2090 ca         1 BYD      -0.115600
      7 CAG         -2.1780     0.0080     1.2100 c          1 BYD       0.683700
      8 CAK          3.5560    -0.0010     1.2070 c          1 BYD       0.683700
      9 NAI         -2.8520     0.0130     0.0430 ns         1 BYD      -0.468400
     10 NAL          4.2310    -0.0010     2.3740 ns         1 BYD      -0.468400
     11 OAH         -2.7850     0.0040     2.2630 o          1 BYD      -0.569100
     12 OAJ         -4.2680     0.0140     0.0440 oh         1 BYD      -0.357100
     13 OAM          4.1640    -0.0020     0.1540 o          1 BYD      -0.569100
     14 OAN          5.6470    -0.0020     2.3730 oh         1 BYD      -0.357100
     15 HAA         -0.5420     0.0020    -0.9380 ha         1 BYD       0.147500
     16 HAB          1.9190    -0.0030    -0.9380 ha         1 BYD       0.147500
     17 HAD          1.9210    -0.0020     3.3550 ha         1 BYD       0.147500
     18 HAE         -0.5400     0.0040     3.3560 ha         1 BYD       0.147500
     19 HAI         -2.3520     0.0440    -0.8240 hn         1 BYD       0.322500
     20 HAL          3.7310     0.0280     3.2410 hn         1 BYD       0.322500
     21 HAJ         -4.5830    -0.1060    -0.8370 ho         1 BYD       0.401000
     22 HAN          5.9620    -0.1360     3.2520 ho         1 BYD       0.401000
@<TRIPOS>BOND
     1    14    10 1
     2    10     8 1
     3    13     8 2
     4     8     3 1
     5     4     3 ar
     6     4     5 ar
     7     3     2 ar
     8     5     6 ar
     9     2     1 ar
    10     6     1 ar
    11     6     7 1
    12    11     7 2
    13     7     9 1
    14     9    12 1
    15     1    15 1
    16     2    16 1
    17     4    17 1
    18     5    18 1
    19     9    19 1
    20    10    20 1
    21    12    21 1
    22    14    22 1
@<TRIPOS>SUBSTRUCTURE
     1 BYD         1 TEMP              0 ****  ****    0 ROOT
