@<TRIPOS>MOLECULE
BYE
   36    38     1     0     0
SMALL
bcc


@<TRIPOS>ATOM
      1 C2           0.0000     0.0000     0.0000 ca         1 BYE      -0.023600
      2 C3           1.3820     0.0000     0.0000 ca         1 BYE      -0.086000
      3 C4           2.0750     0.0000     1.1960 ca         1 BYE      -0.073000
      4 C5           1.3870    -0.0000     2.3970 ca         1 BYE      -0.087000
      5 F5          -5.5310     5.7160     6.5670 f          1 BYE      -0.208967
      6 C6           0.0070    -0.0010     2.4040 ca         1 BYE      -0.104000
      7 F6          -3.5450     6.1970     5.5450 f          1 BYE      -0.208967
      8 C7          -0.6930     0.0050     1.2040 ca         1 BYE      -0.163200
      9 F7          -3.6500     4.5400     7.1140 f          1 BYE      -0.208967
     10 N8          -2.0940     0.0110     1.2090 na         1 BYE       0.626300
     11 N9          -2.9210    -0.8300     0.4520 nc         1 BYE      -0.650800
     12 C10         -4.1700    -0.5490     0.7030 cd         1 BYE       0.498200
     13 C11         -2.8820     0.8260     1.9500 cc         1 BYE      -0.183700
     14 C12         -4.2050     0.4970     1.6450 cd         1 BYE      -0.428900
     15 N13         -2.6490     1.8250     2.8580 na         1 BYE      -0.163600
     16 C14         -3.6710     2.4730     3.4460 cc         1 BYE       0.463200
     17 N15         -4.9220     2.2020     3.2000 nd         1 BYE      -0.619100
     18 C16         -5.2720     1.2420     2.3210 c          1 BYE       0.757100
     19 O17         -6.4460     0.9980     2.0940 o          1 BYE      -0.579100
     20 C18         -3.3540     3.5620     4.4390 c3         1 BYE      -0.059700
     21 C19         -4.6570     4.1550     4.9770 c3         1 BYE      -0.093700
     22 C20         -5.4100     4.8490     3.8400 c3         1 BYE       0.004900
     23 C21         -4.3390     5.1740     6.0740 c3         1 BYE       0.566900
     24 Cl1         -0.8690    -0.0010    -1.5020 cl         1 BYE       0.036600
     25 H1           1.9230    -0.0020    -0.9390 ha         1 BYE       0.123000
     26 H2           3.1590     0.0000     1.1940 ha         1 BYE       0.112000
     27 H3           1.9330    -0.0030     3.3330 ha         1 BYE       0.113000
     28 H4          -0.5300     0.0010     3.3450 ha         1 BYE       0.111000
     29 H5          -5.0320    -1.0380     0.2640 h4         1 BYE       0.021100
     30 H6          -1.7070     2.0760     3.0870 hn         1 BYE       0.280800
     31 H7          -2.7780     4.3390     3.9500 hc         1 BYE       0.039200
     32 H8          -2.7790     3.1480     5.2590 hc         1 BYE       0.039200
     33 H9          -5.2720     3.3640     5.3870 hc         1 BYE       0.084700
     34 H10         -5.6610     5.8600     4.1370 hc         1 BYE       0.022700
     35 H11         -4.7830     4.8770     2.9560 hc         1 BYE       0.022700
     36 H12         -6.3180     4.3010     3.6210 hc         1 BYE       0.022700
@<TRIPOS>BOND
     1     1     2 ar  
     2     1     8 ar  
     3     1    24 1   
     4     2     3 ar  
     5     2    25 1   
     6     3     4 ar  
     7     3    26 1   
     8     4     6 ar  
     9     4    27 1   
    10     5    23 1   
    11     6     8 ar  
    12     6    28 1   
    13     7    23 1   
    14     8    10 1   
    15     9    23 1   
    16    10    11 1   
    17    10    13 1   
    18    11    12 2   
    19    12    14 1   
    20    12    29 1   
    21    13    14 2   
    22    13    15 1   
    23    14    18 1   
    24    15    16 1   
    25    15    30 1   
    26    16    17 2   
    27    16    20 1   
    28    17    18 1   
    29    18    19 2   
    30    20    21 1   
    31    20    31 1   
    32    20    32 1   
    33    21    22 1   
    34    21    23 1   
    35    21    33 1   
    36    22    34 1   
    37    22    35 1   
    38    22    36 1   
@<TRIPOS>SUBSTRUCTURE
     1 BYE         1 TEMP              0 ****  ****    0 ROOT
