@<TRIPOS>MOLECULE
molecule
   36    38     1     0     0
SMALL
bcc


@<TRIPOS>ATOM
      1 C2           0.0000     0.0000     0.0000 ca         1 BYE       0.039400
      2 C3           1.3820     0.0000     0.0000 ca         1 BYE      -0.109000
      3 C4           2.0750     0.0000     1.1960 ca         1 BYE      -0.115000
      4 C5           1.3870    -0.0000     2.3970 ca         1 BYE      -0.114000
      5 F5          -5.5310     5.7160     6.5670 f          1 BYE      -0.227300
      6 C6           0.0070    -0.0010     2.4040 ca         1 BYE      -0.144000
      7 F6          -3.5450     6.1970     5.5450 f          1 BYE      -0.227300
      8 C7          -0.6930     0.0050     1.2040 ca         1 BYE       0.019800
      9 F7          -3.6500     4.5400     7.1140 f          1 BYE      -0.227300
     10 N8          -2.0940     0.0110     1.2090 na         1 BYE       0.138300
     11 N9          -2.9210    -0.8300     0.4520 nc         1 BYE      -0.476800
     12 C10         -4.1700    -0.5490     0.7030 cd         1 BYE       0.414200
     13 C11         -2.8820     0.8260     1.9500 cc         1 BYE       0.161300
     14 C12         -4.2050     0.4970     1.6450 cd         1 BYE      -0.411900
     15 N13         -2.6490     1.8250     2.8580 na         1 BYE      -0.687600
     16 C14         -3.6710     2.4730     3.4460 cc         1 BYE       0.687200
     17 N15         -4.9220     2.2020     3.2000 nd         1 BYE      -0.710100
     18 C16         -5.2720     1.2420     2.3210 c          1 BYE       0.744100
     19 O17         -6.4460     0.9980     2.0940 o          1 BYE      -0.542100
     20 C18         -3.3540     3.5620     4.4390 c3         1 BYE      -0.120700
     21 C19         -4.6570     4.1550     4.9770 c3         1 BYE      -0.100700
     22 C20         -5.4100     4.8490     3.8400 c3         1 BYE      -0.080100
     23 C21         -4.3390     5.1740     6.0740 c3         1 BYE       0.609900
     24 Cl1         -0.8690    -0.0010    -1.5020 cl         1 BYE      -0.062400
     25 H1           1.9230    -0.0020    -0.9390 ha         1 BYE       0.156000
     26 H2           3.1590     0.0000     1.1940 ha         1 BYE       0.145000
     27 H3           1.9330    -0.0030     3.3330 ha         1 BYE       0.144000
     28 H4          -0.5300     0.0010     3.3450 ha         1 BYE       0.142000
     29 H5          -5.0320    -1.0380     0.2640 h4         1 BYE       0.074100
     30 H6          -1.7070     2.0760     3.0870 hn         1 BYE       0.449800
     31 H7          -2.7780     4.3390     3.9500 hc         1 BYE       0.077200
     32 H8          -2.7790     3.1480     5.2590 hc         1 BYE       0.077200
     33 H9          -5.2720     3.3640     5.3870 hc         1 BYE       0.111700
     34 H10         -5.6610     5.8600     4.1370 hc         1 BYE       0.054700
     35 H11         -4.7830     4.8770     2.9560 hc         1 BYE       0.054700
     36 H12         -6.3180     4.3010     3.6210 hc         1 BYE       0.054700
@<TRIPOS>BOND
     1     3     2 ar
     2     3     4 ar
     3     7    23 1
     4     2     1 ar
     5     9    23 1
     6     4     6 ar
     7    23     5 1
     8    23    21 1
     9     1    24 1
    10     1     8 ar
    11     6     8 ar
    12    21    20 1
    13    21    22 1
    14     8    10 1
    15    20    16 1
    16    15    16 1
    17    15    13 1
    18    16    17 2
    19    10    13 1
    20    10    11 1
    21    13    14 2
    22    11    12 2
    23    17    18 1
    24    14    12 1
    25    14    18 1
    26    18    19 2
    27     2    25 1
    28     3    26 1
    29     4    27 1
    30     6    28 1
    31    12    29 1
    32    15    30 1
    33    20    31 1
    34    20    32 1
    35    21    33 1
    36    22    34 1
    37    22    35 1
    38    22    36 1
@<TRIPOS>SUBSTRUCTURE
     1 BYE         1 TEMP              0 ****  ****    0 ROOT
