@<TRIPOS>MOLECULE
BYH
   39    42     1     0     0
SMALL
bcc


@<TRIPOS>ATOM
      1 CAA          0.0000     0.0000     0.0000 c3         1 BYH       0.032300
      2 CAC          4.2480     7.4990    -7.7850 ca         1 BYH      -0.088000
      3 CAD          3.8220     7.7050    -6.4810 ca         1 BYH      -0.115000
      4 CAE          4.4370     0.0000     1.1040 ca         1 BYH      -0.087000
      5 CAF          5.2720     0.0000     0.0000 ca         1 BYH      -0.085000
      6 CAG          4.4060     6.2190    -8.2740 ca         1 BYH      -0.086000
      7 CAH          3.5530     6.6370    -5.6570 ca         1 BYH      -0.041000
      8 CAI          3.0660    -0.0000     0.9420 ca         1 BYH      -0.068000
      9 CAJ          4.7400     0.0000    -1.2740 ca         1 BYH      -0.071000
     10 CAK          3.1570     1.4430    -4.4500 c3         1 BYH       0.073700
     11 NAM          4.1970     3.7580    -7.6390 na         1 BYH       0.302700
     12 NAN          3.5270     4.1060    -5.5820 nc         1 BYH      -0.534100
     13 SAO          3.7180     1.4430    -6.1720 ss         1 BYH      -0.284300
     14 CAP          3.8130     3.1780    -6.4630 cd         1 BYH       0.259700
     15 CAQ          1.2610     0.0000    -2.1620 cs         1 BYH       0.200400
     16 CAR          4.1390     5.1300    -7.4590 ca         1 BYH      -0.273200
     17 CAS          3.7090     5.3330    -6.1370 ca         1 BYH       0.076400
     18 CAT          2.5230    -0.0000    -0.3350 ca         1 BYH      -0.183400
     19 CAU          3.3640    -0.0000    -1.4490 ca         1 BYH      -0.180400
     20 NAV          1.2160    -0.0010    -0.8180 n          1 BYH       0.226000
     21 NAW          2.5440     0.0000    -2.5730 n          1 BYH       0.217000
     22 HAA         -0.0150     0.8850     0.6250 h1         1 BYH       0.041033
     23 HAAA        -0.8700    -0.0010    -0.6460 h1         1 BYH       0.041033
     24 HAAB        -0.0150    -0.8840     0.6260 h1         1 BYH       0.041033
     25 HAD          3.7020     8.7150    -6.1090 ha         1 BYH       0.105000
     26 HAE          4.8620    -0.0000     2.1010 ha         1 BYH       0.111000
     27 HAF          6.3470     0.0000     0.1360 ha         1 BYH       0.111000
     28 HAG          4.7390     6.0640    -9.2940 ha         1 BYH       0.101000
     29 HAH          3.2210     6.8050    -4.6390 ha         1 BYH       0.110000
     30 HAI          2.4160    -0.0000     1.8080 ha         1 BYH       0.111000
     31 HAJ          5.3960     0.0000    -2.1360 ha         1 BYH       0.113000
     32 HAK          2.2040     1.9540    -4.3810 h1         1 BYH       0.068700
     33 HAKA         3.8860     1.9520    -3.8330 h1         1 BYH       0.068700
     34 HNAM         4.4690     3.2800    -8.4750 hn         1 BYH       0.132700
     35 SAB         -0.1040    -0.0010    -3.1950 s          1 BYH      -0.708400
     36 CAL          2.9970     0.0000    -3.9660 c3         1 BYH       0.029000
     37 HAC          4.4570     8.3490    -8.4240 ha         1 BYH       0.104000
     38 HAL          3.9500    -0.5120    -4.0350 h1         1 BYH       0.062700
     39 HALA         2.2680    -0.5100    -4.5830 h1         1 BYH       0.062700
@<TRIPOS>BOND
     1     1    20 1   
     2     1    22 1   
     3     1    23 1   
     4     1    24 1   
     5     2     3 ar  
     6     2     6 ar  
     7     2    37 1   
     8     3     7 ar  
     9     3    25 1   
    10     4     5 ar  
    11     4     8 ar  
    12     4    26 1   
    13     5     9 ar  
    14     5    27 1   
    15     6    16 ar  
    16     6    28 1   
    17     7    17 ar  
    18     7    29 1   
    19     8    18 ar  
    20     8    30 1   
    21     9    19 ar  
    22     9    31 1   
    23    10    13 1   
    24    10    32 1   
    25    10    33 1   
    26    10    36 1   
    27    11    14 1   
    28    11    16 1   
    29    11    34 1   
    30    12    14 2   
    31    12    17 1   
    32    13    14 1   
    33    15    20 1   
    34    15    21 1   
    35    15    35 2   
    36    16    17 ar  
    37    18    19 ar  
    38    18    20 1   
    39    19    21 1   
    40    21    36 1   
    41    36    38 1   
    42    36    39 1   
@<TRIPOS>SUBSTRUCTURE
     1 BYH         1 TEMP              0 ****  ****    0 ROOT
