@<TRIPOS>MOLECULE
BYJ
   46    47     1     0     0
SMALL
bcc


@<TRIPOS>ATOM
      1 N02          0.0000     0.0000     0.0000 nv         1 BYJ      -0.660500
      2 C02          1.3900     0.0000     0.0000 ca         1 BYJ       0.501200
      3 C03          2.0790     0.0000     1.2080 ca         1 BYJ      -0.231300
      4 C04          3.4620     0.0010     1.1950 ca         1 BYJ      -0.052300
      5 C05          4.1120     0.0010    -0.0320 ca         1 BYJ      -0.224300
      6 C07          4.2450     0.0010     2.4810 c3         1 BYJ       0.062200
      7 N01          2.0470    -0.0050    -1.1490 nb         1 BYJ      -0.591000
      8 C06          3.3650     0.0010    -1.1930 ca         1 BYJ       0.383600
      9 C08          4.0650    -0.0060    -2.5270 c3         1 BYJ      -0.067700
     10 C09          3.5740    -1.1950    -3.3550 c3         1 BYJ       0.031900
     11 C11          4.2750    -1.2020    -4.6900 ca         1 BYJ      -0.087300
     12 C16          3.7270    -0.5210    -5.7600 ca         1 BYJ      -0.094000
     13 C12          5.4680    -1.8840    -4.8420 ca         1 BYJ      -0.104000
     14 C13          6.1090    -1.8900    -6.0650 ca         1 BYJ      -0.097000
     15 C14          5.5580    -1.2140    -7.1380 ca         1 BYJ      -0.102000
     16 C15          4.3690    -0.5260    -6.9850 ca         1 BYJ      -0.088300
     17 C17          3.7720     0.2160    -8.1530 c3         1 BYJ       0.031900
     18 C18          4.3020     1.6510    -8.1700 c3         1 BYJ      -0.028400
     19 C19          3.6950     2.4040    -9.3560 c3         1 BYJ       0.140800
     20 N20          4.2040     3.7820    -9.3720 n7         1 BYJ      -0.586200
     21 C21          3.6420     4.5380   -10.4990 c3         1 BYJ       0.179100
     22 H1          -0.5000    -0.8670    -0.0210 hn         1 BYJ       0.275800
     23 H2          -0.5000     0.8670    -0.0070 hn         1 BYJ       0.275800
     24 H3           1.5390     0.0000     2.1480 ha         1 BYJ       0.120000
     25 H4           5.1940     0.0040    -0.0780 ha         1 BYJ       0.118000
     26 H5           4.9190     0.8500     2.4940 hc         1 BYJ       0.010700
     27 H6           4.8180    -0.9160     2.5550 hc         1 BYJ       0.010700
     28 H7           3.5630     0.0690     3.3200 hc         1 BYJ       0.010700
     29 H8           5.1340    -0.0890    -2.3740 hc         1 BYJ       0.024700
     30 H9           3.8460     0.9150    -3.0540 hc         1 BYJ       0.024700
     31 H10          3.7920    -2.1160    -2.8280 hc         1 BYJ       0.027200
     32 H11          2.5050    -1.1120    -3.5090 hc         1 BYJ       0.027200
     33 H12          2.7950     0.0180    -5.6400 ha         1 BYJ       0.111000
     34 H13          5.9000    -2.4140    -4.0010 ha         1 BYJ       0.104000
     35 H14          7.0430    -2.4260    -6.1850 ha         1 BYJ       0.101000
     36 H15          6.0610    -1.2190    -8.0970 ha         1 BYJ       0.106000
     37 H16          4.0460    -0.2820    -9.0750 hc         1 BYJ       0.017700
     38 H17          2.6930     0.2300    -8.0570 hc         1 BYJ       0.017700
     39 H18          5.3810     1.6360    -8.2650 hc         1 BYJ       0.022700
     40 H19          4.0270     2.1480    -7.2480 hc         1 BYJ       0.022700
     41 H20          2.6160     2.4180    -9.2600 h1         1 BYJ       0.006200
     42 H21          3.9700     1.9070   -10.2780 h1         1 BYJ       0.006200
     43 H22          3.9640     4.2360    -8.5130 hn         1 BYJ       0.250800
     44 H24          2.5630     4.5700   -10.4090 h1         1 BYJ      -0.002633
     45 H25          3.9130     4.0540   -11.4290 h1         1 BYJ      -0.002633
     46 H26          4.0350     5.5470   -10.4890 h1         1 BYJ      -0.002633
@<TRIPOS>BOND
     1     1     2 1   
     2     1    22 1   
     3     1    23 1   
     4     2     3 ar  
     5     2     7 ar  
     6     3     4 ar  
     7     3    24 1   
     8     4     5 ar  
     9     4     6 1   
    10     5     8 ar  
    11     5    25 1   
    12     6    26 1   
    13     6    27 1   
    14     6    28 1   
    15     7     8 ar  
    16     8     9 1   
    17     9    10 1   
    18     9    29 1   
    19     9    30 1   
    20    10    11 1   
    21    10    31 1   
    22    10    32 1   
    23    11    12 ar  
    24    11    13 ar  
    25    12    16 ar  
    26    12    33 1   
    27    13    14 ar  
    28    13    34 1   
    29    14    15 ar  
    30    14    35 1   
    31    15    16 ar  
    32    15    36 1   
    33    16    17 1   
    34    17    18 1   
    35    17    37 1   
    36    17    38 1   
    37    18    19 1   
    38    18    39 1   
    39    18    40 1   
    40    19    20 1   
    41    19    41 1   
    42    19    42 1   
    43    20    21 1   
    44    20    43 1   
    45    21    44 1   
    46    21    45 1   
    47    21    46 1   
@<TRIPOS>SUBSTRUCTURE
     1 BYJ         1 TEMP              0 ****  ****    0 ROOT
