@<TRIPOS>MOLECULE
molecule
   46    47     1     0     0
SMALL
bcc


@<TRIPOS>ATOM
      1 N02          0.0000     0.0000     0.0000 nv         1 BYJ      -1.084500
      2 C02          1.3900     0.0000     0.0000 ca         1 BYJ       0.683200
      3 C03          2.0790     0.0000     1.2080 ca         1 BYJ      -0.263300
      4 C04          3.4620     0.0010     1.1950 ca         1 BYJ      -0.043300
      5 C05          4.1120     0.0010    -0.0320 ca         1 BYJ      -0.260300
      6 C07          4.2450     0.0010     2.4810 c3         1 BYJ      -0.049800
      7 N01          2.0470    -0.0050    -1.1490 nb         1 BYJ      -0.721000
      8 C06          3.3650     0.0010    -1.1930 ca         1 BYJ       0.440600
      9 C08          4.0650    -0.0060    -2.5270 c3         1 BYJ      -0.120700
     10 C09          3.5740    -1.1950    -3.3550 c3         1 BYJ      -0.030100
     11 C11          4.2750    -1.2020    -4.6900 ca         1 BYJ      -0.082300
     12 C16          3.7270    -0.5210    -5.7600 ca         1 BYJ      -0.121000
     13 C12          5.4680    -1.8840    -4.8420 ca         1 BYJ      -0.130000
     14 C13          6.1090    -1.8900    -6.0650 ca         1 BYJ      -0.125000
     15 C14          5.5580    -1.2140    -7.1380 ca         1 BYJ      -0.128000
     16 C15          4.3690    -0.5260    -6.9850 ca         1 BYJ      -0.080300
     17 C17          3.7720     0.2160    -8.1530 c3         1 BYJ      -0.036100
     18 C18          4.3020     1.6510    -8.1700 c3         1 BYJ      -0.078400
     19 C19          3.6950     2.4040    -9.3560 c3         1 BYJ       0.153800
     20 N20          4.2040     3.7820    -9.3720 n7         1 BYJ      -0.820200
     21 C21          3.6420     4.5380   -10.4990 c3         1 BYJ       0.147100
     22 H1          -0.5000    -0.8670    -0.0210 hn         1 BYJ       0.434800
     23 H2          -0.5000     0.8670    -0.0070 hn         1 BYJ       0.434800
     24 H3           1.5390     0.0000     2.1480 ha         1 BYJ       0.142000
     25 H4           5.1940     0.0040    -0.0780 ha         1 BYJ       0.138000
     26 H5           4.9190     0.8500     2.4940 hc         1 BYJ       0.047367
     27 H6           4.8180    -0.9160     2.5550 hc         1 BYJ       0.047367
     28 H7           3.5630     0.0690     3.3200 hc         1 BYJ       0.047367
     29 H8           5.1340    -0.0890    -2.3740 hc         1 BYJ       0.057700
     30 H9           3.8460     0.9150    -3.0540 hc         1 BYJ       0.057700
     31 H10          3.7920    -2.1160    -2.8280 hc         1 BYJ       0.059700
     32 H11          2.5050    -1.1120    -3.5090 hc         1 BYJ       0.059700
     33 H12          2.7950     0.0180    -5.6400 ha         1 BYJ       0.134000
     34 H13          5.9000    -2.4140    -4.0010 ha         1 BYJ       0.128000
     35 H14          7.0430    -2.4260    -6.1850 ha         1 BYJ       0.128000
     36 H15          6.0610    -1.2190    -8.0970 ha         1 BYJ       0.130000
     37 H16          4.0460    -0.2820    -9.0750 hc         1 BYJ       0.047700
     38 H17          2.6930     0.2300    -8.0570 hc         1 BYJ       0.047700
     39 H18          5.3810     1.6360    -8.2650 hc         1 BYJ       0.052200
     40 H19          4.0270     2.1480    -7.2480 hc         1 BYJ       0.052200
     41 H20          2.6160     2.4180    -9.2600 h1         1 BYJ       0.031200
     42 H21          3.9700     1.9070   -10.2780 h1         1 BYJ       0.031200
     43 H22          3.9640     4.2360    -8.5130 hn         1 BYJ       0.351800
     44 H24          2.5630     4.5700   -10.4090 h1         1 BYJ       0.030033
     45 H25          3.9130     4.0540   -11.4290 h1         1 BYJ       0.030033
     46 H26          4.0350     5.5470   -10.4890 h1         1 BYJ       0.030033
@<TRIPOS>BOND
     1    21    20 1
     2    10    11 1
     3    10     9 1
     4    12    11 ar
     5    12    16 ar
     6    17    16 1
     7    17    18 1
     8    11    13 ar
     9    20    19 1
    10    16    15 ar
    11    13    14 ar
    12    15    14 ar
    13    19    18 1
    14     1     2 1
    15     7     2 ar
    16     7     8 ar
    17     9     8 1
    18     2     3 ar
    19     8     5 ar
    20     3     4 ar
    21     5     4 ar
    22     4     6 1
    23     1    22 1
    24     1    23 1
    25     3    24 1
    26     5    25 1
    27     6    26 1
    28     6    27 1
    29     6    28 1
    30     9    29 1
    31     9    30 1
    32    10    31 1
    33    10    32 1
    34    12    33 1
    35    13    34 1
    36    14    35 1
    37    15    36 1
    38    17    37 1
    39    17    38 1
    40    18    39 1
    41    18    40 1
    42    19    41 1
    43    19    42 1
    44    20    43 1
    45    21    44 1
    46    21    45 1
    47    21    46 1
@<TRIPOS>SUBSTRUCTURE
     1 BYJ         1 TEMP              0 ****  ****    0 ROOT
