@<TRIPOS>MOLECULE
BYK
   47    50     1     0     0
SMALL
bcc


@<TRIPOS>ATOM
      1 O01          0.0000     0.0000     0.0000 o          1 BYK      -0.830800
      2 C02          1.3430     0.0000     0.0000 c          1 BYK       0.966600
      3 O03          1.9470     0.0020    -1.0460 o          1 BYK      -0.830800
      4 C04          2.0970     0.0000     1.3050 c3         1 BYK      -0.179300
      5 C05          1.7440     1.2680     2.0780 c3         1 BYK       0.168700
      6 S06          3.3400     2.1060     2.3110 ss         1 BYK      -0.364700
      7 C07          4.3180     0.8910     1.4740 cc         1 BYK       0.098200
      8 C08          5.6880     0.8800     1.2600 cd         1 BYK      -0.468000
      9 N09          6.4740     1.9320     1.7380 nx         1 BYK       0.312800
     10 C10          7.3660     1.4350     2.7930 c3         1 BYK      -0.045400
     11 C11          7.2760     2.4820     0.6370 c3         1 BYK      -0.045400
     12 C12          6.2830    -0.1720     0.5740 cd         1 BYK      -0.020200
     13 C13          7.7710    -0.1950     0.3360 c3         1 BYK       0.049100
     14 C14          8.1630    -1.5190    -0.2670 ca         1 BYK      -0.098300
     15 C15          8.7240    -2.4850     0.5100 ca         1 BYK      -0.085000
     16 C16          9.0920    -3.7160    -0.0300 ca         1 BYK      -0.107000
     17 C17          8.9030    -3.9870    -1.3510 ca         1 BYK      -0.065000
     18 C18          8.3270    -3.0130    -2.1840 ca         1 BYK      -0.035000
     19 C19          8.1160    -3.2560    -3.5520 ca         1 BYK      -0.079000
     20 C20          7.5560    -2.2900    -4.3290 ca         1 BYK      -0.091000
     21 C21          7.1870    -1.0590    -3.7890 ca         1 BYK      -0.069000
     22 C22          7.3770    -0.7880    -2.4690 ca         1 BYK      -0.111000
     23 C23          7.9470    -1.7630    -1.6340 ca         1 BYK      -0.023000
     24 C24          5.4790    -1.1950     0.1150 cc         1 BYK      -0.198200
     25 C25          4.1080    -1.1510     0.3480 c          1 BYK       0.582700
     26 O26          3.4060    -2.0620    -0.0610 o          1 BYK      -0.568500
     27 N27          3.5270    -0.1150     1.0240 n          1 BYK       0.246000
     28 H041         1.7900    -0.8580     1.8910 h1         1 BYK       0.081700
     29 H052         1.0880     1.8900     1.4810 h1         1 BYK       0.081200
     30 H051         1.3240     1.0060     3.0410 h1         1 BYK       0.081200
     31 H102         8.3960     1.5200     2.4660 hx         1 BYK       0.072867
     32 H101         7.1380     0.3970     3.0000 hx         1 BYK       0.072867
     33 H103         7.2240     2.0220     3.6930 hx         1 BYK       0.072867
     34 H112         7.2870     3.5630     0.7040 hx         1 BYK       0.072867
     35 H113         6.8440     2.1830    -0.3100 hx         1 BYK       0.072867
     36 H111         8.2900     2.1060     0.7060 hx         1 BYK       0.072867
     37 H131         8.2890    -0.0600     1.2780 hc         1 BYK       0.028700
     38 H132         8.0400     0.6050    -0.3420 hc         1 BYK       0.028700
     39 H151         8.8860    -2.2960     1.5640 ha         1 BYK       0.097000
     40 H161         9.5370    -4.4680     0.6100 ha         1 BYK       0.106000
     41 H171         9.1940    -4.9480    -1.7560 ha         1 BYK       0.110000
     42 H191         8.3980    -4.2080    -3.9860 ha         1 BYK       0.110000
     43 H201         7.3940    -2.4800    -5.3830 ha         1 BYK       0.107000
     44 H211         6.7430    -0.3070    -4.4300 ha         1 BYK       0.107000
     45 H221         7.0850     0.1730    -2.0640 ha         1 BYK       0.104000
     46 H241         5.9130    -2.0300    -0.4230 ha         1 BYK       0.170000
     47 H091         5.8830     2.6480     2.1100 hn         1 BYK       0.237800
@<TRIPOS>BOND
     1     1     2 1   
     2     2     3 1   
     3     2     4 1   
     4     4     5 1   
     5     4    27 1   
     6     4    28 1   
     7     5     6 1   
     8     5    29 1   
     9     5    30 1   
    10     6     7 1   
    11     7     8 2   
    12     7    27 1   
    13     8     9 1   
    14     8    12 1   
    15     9    10 1   
    16     9    11 1   
    17     9    47 1   
    18    10    31 1   
    19    10    32 1   
    20    10    33 1   
    21    11    34 1   
    22    11    35 1   
    23    11    36 1   
    24    12    13 1   
    25    12    24 2   
    26    13    14 1   
    27    13    37 1   
    28    13    38 1   
    29    14    15 ar  
    30    14    23 ar  
    31    15    16 ar  
    32    15    39 1   
    33    16    17 ar  
    34    16    40 1   
    35    17    18 ar  
    36    17    41 1   
    37    18    19 ar  
    38    18    23 ar  
    39    19    20 ar  
    40    19    42 1   
    41    20    21 ar  
    42    20    43 1   
    43    21    22 ar  
    44    21    44 1   
    45    22    23 ar  
    46    22    45 1   
    47    24    25 1   
    48    24    46 1   
    49    25    26 2   
    50    25    27 1   
@<TRIPOS>SUBSTRUCTURE
     1 BYK         1 TEMP              0 ****  ****    0 ROOT
