@<TRIPOS>MOLECULE
molecule
   24    26     1     0     0
SMALL
bcc


@<TRIPOS>ATOM
      1 C1           0.0000     0.0000     0.0000 c          1 BYM       0.703700
      2 C3           2.0270     0.0000     1.1500 c          1 BYM       0.740100
      3 C8          -4.1240     0.0480     4.7040 ca         1 BYM       0.042100
      4 C9          -3.2300    -0.4480     5.6550 ca         1 BYM       0.067100
      5 C11         -3.7220     0.2010     3.3930 ca         1 BYM      -0.070000
      6 C13         -1.9360    -0.7880     5.2840 ca         1 BYM      -0.099000
      7 C14         -5.0200     0.3450     6.7280 c3         1 BYM       0.748200
      8 C15         -2.4170    -0.1410     3.0190 ca         1 BYM      -0.086800
      9 C16         -1.5260    -0.6390     3.9780 ca         1 BYM      -0.095000
     10 N2           1.3230     0.0000     0.0000 ns         1 BYM      -0.587500
     11 S4           0.7580     0.0110     2.4060 ss         1 BYM      -0.239200
     12 C5          -0.6610     0.0130     1.3200 cc         1 BYM      -0.086600
     13 O6           3.2350    -0.0040     1.2960 o          1 BYM      -0.525500
     14 O7          -0.6390     0.0000    -1.0350 o          1 BYM      -0.581500
     15 O10         -5.3180     0.3060     5.3200 os         1 BYM      -0.309900
     16 O12         -3.8650    -0.5040     6.8620 os         1 BYM      -0.308900
     17 C18         -1.9840     0.0200     1.6250 cf         1 BYM       0.039800
     18 F19         -6.0920    -0.1630     7.4710 f          1 BYM      -0.179800
     19 H11         -4.4150     0.5860     2.6540 ha         1 BYM       0.157000
     20 H13         -1.2460    -1.1730     6.0260 ha         1 BYM       0.159000
     21 H16         -0.5150    -0.9050     3.6930 ha         1 BYM       0.169000
     22 HN2          1.8120    -0.0070    -0.8730 hn         1 BYM       0.350500
     23 H18         -2.7200     0.0170     0.8300 ha         1 BYM       0.172000
     24 F17         -4.7210     1.6510     7.1310 f          1 BYM      -0.179800
@<TRIPOS>BOND
     1     1    10 1
     2     1    12 1
     3     1    14 2
     4     2    10 1
     5     2    11 1
     6     2    13 2
     7     3     4 ar
     8     3     5 ar
     9     3    15 1
    10     4     6 ar
    11     4    16 1
    12     5     8 ar
    13     5    19 1
    14     6     9 ar
    15     6    20 1
    16     7    15 1
    17     7    16 1
    18     7    24 1
    19     7    18 1
    20     8     9 ar
    21     8    17 1
    22     9    21 1
    23    10    22 1
    24    11    12 1
    25    12    17 2
    26    17    23 1
@<TRIPOS>SUBSTRUCTURE
     1 BYM         1 TEMP              0 ****  ****    0 ROOT
