@<TRIPOS>MOLECULE
molecule
   66    69     1     0     0
SMALL
bcc


@<TRIPOS>ATOM
      1 C1           0.0000     0.0000     0.0000 cc         1 BYN       0.664200
      2 N1           1.3570     0.0000     0.0000 ns         1 BYN      -0.468400
      3 C2           2.0410     0.0000     1.1680 c          1 BYN       0.704100
      4 C3           1.3260    -0.0890     2.3630 cc         1 BYN      -0.207900
      5 C4          -0.0650    -0.1230     2.3010 cd         1 BYN       0.333100
      6 N2          -0.6840    -0.0820     1.1180 nd         1 BYN      -0.641100
      7 N3           1.9420    -0.1430     3.6250 na         1 BYN      -0.186100
      8 C5           1.2150     0.2030     4.7780 ca         1 BYN       0.069700
      9 C6          -0.1800     0.1790     4.6920 ca         1 BYN       0.022700
     10 N4          -0.7910    -0.1830     3.4820 na         1 BYN      -0.158100
     11 C7           1.8660     0.5510     5.9580 ca         1 BYN      -0.081300
     12 C8           1.0850     0.8110     7.0730 ca         1 BYN      -0.077300
     13 C9          -0.3010     0.8000     6.9860 ca         1 BYN      -0.098300
     14 C10         -0.9400     0.4980     5.7990 ca         1 BYN      -0.130000
     15 C11          3.3270    -0.5870     3.8010 c3         1 BYN       0.260800
     16 C12          4.0120     0.5140     4.6070 c3         1 BYN      -0.088400
     17 C13          3.3670     0.6550     5.9910 c3         1 BYN       0.004300
     18 O1          -0.6610     0.0720    -1.1750 oh         1 BYN      -0.562600
     19 C14         -1.1150     1.1230     8.2150 c3         1 BYN      -0.039800
     20 C15          1.6370     1.0810     8.4530 c3         1 BYN      -0.048800
     21 O2           3.3580    -1.8380     4.4880 oh         1 BYN      -0.605800
     22 C16          3.9740    -0.3970     6.9200 c3         1 BYN      -0.081100
     23 C17          3.7790     2.0540     6.4900 c3         1 BYN      -0.081100
     24 C18         -2.1830    -0.6380     3.4450 c3         1 BYN       0.037300
     25 O3           3.2580     0.1000     1.1470 o          1 BYN      -0.697500
     26 C19         -2.2400    -2.1340     3.7610 c3         1 BYN       0.125100
     27 C20         -3.7000    -2.5690     3.9040 c3         1 BYN       0.133100
     28 C21         -3.7570    -4.0650     4.2200 c3         1 BYN       0.123100
     29 C22         -5.2170    -4.5010     4.3640 c3         1 BYN       0.194400
     30 O4          -1.6270    -2.8680     2.6990 oh         1 BYN      -0.582800
     31 O5          -4.3130    -1.8340     4.9660 oh         1 BYN      -0.612800
     32 O6          -3.1440    -4.8000     3.1590 oh         1 BYN      -0.631800
     33 O7          -5.2680    -5.8680     4.7740 os         1 BYN      -0.582200
     34 P1          -6.6480    -6.6590     5.0230 p5         1 BYN       1.177900
     35 O8          -7.4720    -5.9150     6.0020 o          1 BYN      -0.908167
     36 O9          -7.4510    -6.7870     3.6330 o          1 BYN      -0.908167
     37 O10         -6.3290    -8.1290     5.5960 o          1 BYN      -0.908167
     38 H1           1.8550    -0.0040    -0.8680 hn         1 BYN       0.332500
     39 H3          -2.0210     0.4930     5.7440 ha         1 BYN       0.154000
     40 H4           3.8050    -0.6830     2.8340 h2         1 BYN       0.091700
     41 H5           5.0600     0.2680     4.7270 hc         1 BYN       0.050700
     42 H6           3.9200     1.4530     4.0750 hc         1 BYN       0.050700
     43 H7          -2.1680     1.1220     7.9610 hc         1 BYN       0.040367
     44 H8          -0.8340     2.1010     8.5880 hc         1 BYN       0.040367
     45 H9          -0.9260     0.3780     8.9790 hc         1 BYN       0.040367
     46 H10          1.4130     2.1020     8.7380 hc         1 BYN       0.039700
     47 H11          1.1840     0.4000     9.1630 hc         1 BYN       0.039700
     48 H12          2.7100     0.9350     8.4470 hc         1 BYN       0.039700
     49 H13          3.9240    -2.4350     4.0280 ho         1 BYN       0.401000
     50 H14          4.2940     0.0760     7.8410 hc         1 BYN       0.034533
     51 H15          3.2310    -1.1540     7.1420 hc         1 BYN       0.034533
     52 H16          4.8260    -0.8580     6.4360 hc         1 BYN       0.034533
     53 H17          2.9730     2.7540     6.3080 hc         1 BYN       0.034533
     54 H18          4.6670     2.3790     5.9620 hc         1 BYN       0.034533
     55 H19          3.9870     2.0110     7.5530 hc         1 BYN       0.034533
     56 H20         -2.5950    -0.4620     2.4580 h1         1 BYN       0.075700
     57 H21         -2.7610    -0.0920     4.1800 h1         1 BYN       0.075700
     58 H22         -1.7120    -2.3280     4.6870 h1         1 BYN       0.048700
     59 H23         -4.2280    -2.3740     2.9780 h1         1 BYN       0.052700
     60 H24         -3.2290    -4.2590     5.1460 h1         1 BYN       0.035700
     61 H25         -5.7230    -4.3900     3.4130 h1         1 BYN       0.021200
     62 H26         -5.7060    -3.8830     5.1080 h1         1 BYN       0.021200
     63 H27         -1.0220    -3.4960     3.0590 ho         1 BYN       0.409000
     64 H28         -5.1170    -1.4490     4.6590 ho         1 BYN       0.405000
     65 H29         -3.0630    -5.7050     3.4090 ho         1 BYN       0.429000
     66 H2          -0.6430     0.9600    -1.4920 ho         1 BYN       0.435000
@<TRIPOS>BOND
     1    20    12 1
     2    19    13 1
     3    22    17 1
     4    12    13 ar
     5    12    11 ar
     6    13    14 ar
     7    17    23 1
     8    17    11 1
     9    17    16 1
    10    11     8 ar
    11    14     9 ar
    12    16    15 1
    13     8     9 ar
    14     8     7 1
    15     9    10 1
    16    15     7 1
    17    15    21 1
    18     7     4 1
    19    30    26 1
    20    10    24 1
    21    10     5 1
    22    24    26 1
    23     4     5 2
    24     4     3 1
    25    26    27 1
    26     5     6 1
    27    25     3 2
    28    27    28 1
    29    27    31 1
    30     3     2 1
    31    28    32 1
    32    28    29 1
    33     6     1 2
    34    33    29 1
    35    33    34 1
    36     2     1 1
    37     1    18 1
    38    35    34 1
    39    34    36 1
    40    34    37 1
    41     2    38 1
    42    14    39 1
    43    15    40 1
    44    16    41 1
    45    16    42 1
    46    19    43 1
    47    19    44 1
    48    19    45 1
    49    20    46 1
    50    20    47 1
    51    20    48 1
    52    21    49 1
    53    22    50 1
    54    22    51 1
    55    22    52 1
    56    23    53 1
    57    23    54 1
    58    23    55 1
    59    24    56 1
    60    24    57 1
    61    26    58 1
    62    27    59 1
    63    28    60 1
    64    29    61 1
    65    29    62 1
    66    30    63 1
    67    31    64 1
    68    32    65 1
    69    18    66 1
@<TRIPOS>SUBSTRUCTURE
     1 BYN         1 TEMP              0 ****  ****    0 ROOT
