@<TRIPOS>MOLECULE
molecule
   53    55     1     0     0
SMALL
bcc


@<TRIPOS>ATOM
      1 C22          0.0000     0.0000     0.0000 c3         1 BYP       0.090400
      2 N1          -6.1050    -1.4100    -2.9430 nb         1 BYP      -0.818000
      3 C2          -6.7770    -2.0770    -3.8700 ca         1 BYP       0.554200
      4 C6          -6.7380    -0.6820    -2.0360 ca         1 BYP       0.978900
      5 C4          -8.7960    -1.2320    -2.9150 ca         1 BYP       0.784200
      6 C3          -8.1580    -2.0090    -3.8850 ca         1 BYP      -0.392500
      7 N5          -8.0600    -0.5950    -2.0130 nb         1 BYP      -0.849000
      8 C11        -12.0700     0.8960     0.2140 ca         1 BYP      -0.146000
      9 C10        -12.6170     0.9120    -1.0560 ca         1 BYP      -0.112500
     10 C9         -11.9930     0.2400    -2.0880 ca         1 BYP      -0.144000
     11 C8         -10.8140    -0.4530    -1.8500 ca         1 BYP       0.150600
     12 C12        -10.8960     0.2050     0.4550 ca         1 BYP      -0.112500
     13 C17         -2.5850     0.0020    -2.4480 ca         1 BYP      -0.175000
     14 C16         -3.9650     0.0030    -2.3840 ca         1 BYP      -0.104500
     15 C13        -10.2700    -0.4740    -0.5710 ca         1 BYP      -0.144000
     16 C15         -4.6020     0.0010    -1.1500 ca         1 BYP       0.120600
     17 C18         -1.8360     0.0020    -1.2810 ca         1 BYP       0.108100
     18 C19         -2.4700    -0.0040    -0.0490 ca         1 BYP      -0.175000
     19 C20         -3.8500     0.0010     0.0170 ca         1 BYP      -0.104500
     20 O21         -0.4780     0.0010    -1.3460 os         1 BYP      -0.297900
     21 N7         -10.1790    -1.1350    -2.8920 nu         1 BYP      -0.758300
     22 Br          -9.1570    -2.9450    -5.1880 br         1 BYP      -0.089100
     23 C23          1.5300     0.0000     0.0000 c3         1 BYP       0.152100
     24 C24          2.0420     0.0000     1.4400 c3         1 BYP       0.132800
     25 N25          3.5090     0.0560     1.4390 n3         1 BYP      -0.656600
     26 C26          3.8780     1.4430     1.1250 c3         1 BYP       0.120600
     27 C27          3.9430    -0.1930     2.8200 c3         1 BYP       0.120600
     28 O28          2.0060    -1.1660    -0.6760 oh         1 BYP      -0.582800
     29 H221        -0.3610    -0.8850     0.5100 h1         1 BYP       0.048700
     30 H222        -0.3610     0.8840     0.5120 h1         1 BYP       0.048700
     31 H2          -6.2500    -2.6700    -4.6080 h4         1 BYP       0.042100
     32 H10        -13.5370     1.4540    -1.2410 ha         1 BYP       0.130500
     33 H9         -12.4210     0.2560    -3.0830 ha         1 BYP       0.144000
     34 H12        -10.4710     0.1910     1.4510 ha         1 BYP       0.130500
     35 H17         -2.0880     0.0060    -3.4100 ha         1 BYP       0.144500
     36 H16         -4.5490     0.0030    -3.2950 ha         1 BYP       0.146500
     37 H13         -9.3500    -1.0140    -0.3820 ha         1 BYP       0.144000
     38 H19         -1.8840    -0.0050     0.8620 ha         1 BYP       0.144500
     39 H20         -4.3460    -0.0020     0.9800 ha         1 BYP       0.146500
     40 H7         -10.7240    -1.5670    -3.6120 hn         1 BYP       0.471800
     41 H23          1.8900     0.8850    -0.5110 h1         1 BYP       0.042700
     42 H241         1.6480     0.8630     1.9630 h1         1 BYP       0.045700
     43 H242         1.7160    -0.9050     1.9390 h1         1 BYP       0.045700
     44 H261         3.1610     2.1180     1.5750 h1         1 BYP       0.035367
     45 H262         3.8800     1.5810     0.0510 h1         1 BYP       0.035367
     46 H263         4.8660     1.6510     1.5180 h1         1 BYP       0.035367
     47 H271         3.6260    -1.1830     3.1250 h1         1 BYP       0.035367
     48 H272         3.5000     0.5460     3.4770 h1         1 BYP       0.035367
     49 H273         5.0220    -0.1260     2.8770 h1         1 BYP       0.035367
     50 H28          2.2480    -0.9400    -1.5590 ho         1 BYP       0.409000
     51 N14         -6.0000     0.0010    -1.0840 nu         1 BYP      -0.746300
     52 H11        -12.5610     1.4260     1.0210 ha         1 BYP       0.129000
     53 H14         -6.4660     0.5200    -0.3660 hn         1 BYP       0.466800
@<TRIPOS>BOND
     1     1    20 1
     2     1    23 1
     3     1    29 1
     4     1    30 1
     5     2     3 ar
     6     2     4 ar
     7     3     6 ar
     8     3    31 1
     9     4     7 ar
    10     4    51 1
    11     5     6 ar
    12     5     7 ar
    13     5    21 1
    14     6    22 1
    15     8     9 ar
    16     8    12 ar
    17     8    52 1
    18     9    10 ar
    19     9    32 1
    20    10    11 ar
    21    10    33 1
    22    11    15 ar
    23    11    21 1
    24    12    15 ar
    25    12    34 1
    26    13    14 ar
    27    13    17 ar
    28    13    35 1
    29    14    16 ar
    30    14    36 1
    31    15    37 1
    32    16    19 ar
    33    16    51 1
    34    17    18 ar
    35    17    20 1
    36    18    19 ar
    37    18    38 1
    38    19    39 1
    39    21    40 1
    40    51    53 1
    41    23    24 1
    42    23    28 1
    43    23    41 1
    44    24    25 1
    45    24    42 1
    46    24    43 1
    47    25    26 1
    48    25    27 1
    49    26    44 1
    50    26    45 1
    51    26    46 1
    52    27    47 1
    53    27    48 1
    54    27    49 1
    55    28    50 1
@<TRIPOS>SUBSTRUCTURE
     1 BYP         1 TEMP              0 ****  ****    0 ROOT
