@<TRIPOS>MOLECULE
BYS
   41    43     1     0     0
SMALL
bcc


@<TRIPOS>ATOM
      1 C1          1.3380   -0.2320    0.1860 c3        1 BYS     -0.146700
      2 C2          0.5490   -1.2550    1.0350 c         1 BYS      0.901600
      3 O3          1.1640   -2.0730    1.7850 o         1 BYS     -0.868800
      4 O4         -0.7200   -1.2100    0.9930 o         1 BYS     -0.868800
      5 C5          2.2590    0.5880    1.0790 c3        1 BYS     -0.060100
      6 C6          1.6050    1.7240    1.7860 ca        1 BYS     -0.014300
      7 C7          0.2560    1.6920    2.1700 ca        1 BYS     -0.136000
      8 C8         -0.3050    2.7620    2.8630 ca        1 BYS     -0.152000
      9 C9          0.4640    3.8820    3.1830 ca        1 BYS     -0.180000
     10 C10         1.8030    3.9260    2.7990 ca        1 BYS     -0.152000
     11 C11         2.3680    2.8580    2.1050 ca        1 BYS     -0.136000
     12 C12         2.1040   -0.9080   -0.9520 c3        1 BYS     -0.147700
     13 C13         2.6440    0.1140   -1.9790 c         1 BYS      0.900600
     14 O14         3.5850    0.9030   -1.6650 o         1 BYS     -0.868300
     15 O15         2.1550    0.0880   -3.1520 o         1 BYS     -0.868300
     16 C16         3.2460   -1.7680   -0.4270 c3        1 BYS     -0.061100
     17 C17         3.6470   -2.8980   -1.3120 ca        1 BYS     -0.011300
     18 C18         4.2250   -4.0360   -0.7010 ca        1 BYS     -0.121000
     19 C19         4.6310   -5.0550   -1.5370 ca        1 BYS      0.024100
     20 O20         5.2320   -6.2770   -1.2030 os        1 BYS     -0.354900
     21 C21         5.4410   -6.9840   -2.4380 c3        1 BYS      0.327200
     22 O22         4.9720   -6.1610   -3.5210 os        1 BYS     -0.359900
     23 C23         4.4740   -4.9850   -2.9400 ca        1 BYS     -0.000900
     24 C24         3.9020   -3.8860   -3.5490 ca        1 BYS     -0.116000
     25 C25         3.4930   -2.8420   -2.7050 ca        1 BYS     -0.130000
     26 HC11        0.5880    0.4560   -0.2950 hc        1 BYS      0.050700
     27 HC51        3.1060    0.9850    0.4490 hc        1 BYS      0.075700
     28 HC52        2.6970   -0.1000    1.8570 hc        1 BYS      0.075700
     29 HC71       -0.3570    0.8030    1.9130 ha        1 BYS      0.163500
     30 HC81       -1.3630    2.7230    3.1580 ha        1 BYS      0.099000
     31 HC91        0.0180    4.7230    3.7290 ha        1 BYS      0.091000
     32 H101        2.4140    4.8070    3.0380 ha        1 BYS      0.099000
     33 H111        3.4200    2.9030    1.7890 ha        1 BYS      0.163500
     34 H121        1.3660   -1.5670   -1.4890 hc        1 BYS      0.049700
     35 H161        4.1450   -1.1050   -0.2810 hc        1 BYS      0.080700
     36 H162        2.9480   -2.1790    0.5810 hc        1 BYS      0.080700
     37 H181        4.3270   -4.0990    0.3900 ha        1 BYS      0.151000
     38 H211        4.8420   -7.9280   -2.4180 h2        1 BYS      0.037200
     39 H212        6.5370   -7.1610   -2.5700 h2        1 BYS      0.037200
     40 H241        3.7720   -3.8240   -4.6350 ha        1 BYS      0.132000
     41 H251        3.0300   -1.9360   -3.1540 ha        1 BYS      0.214000
@<TRIPOS>BOND
     1    1    2 1   
     2    1    5 1   
     3    1   12 1   
     4    1   26 1   
     5    2    3 1   
     6    2    4 1   
     7    5    6 1   
     8    5   27 1   
     9    5   28 1   
    10    6    7 ar  
    11    6   11 ar  
    12    7    8 ar  
    13    7   29 1   
    14    8    9 ar  
    15    8   30 1   
    16    9   10 ar  
    17    9   31 1   
    18   10   11 ar  
    19   10   32 1   
    20   11   33 1   
    21   12   13 1   
    22   12   16 1   
    23   12   34 1   
    24   13   14 1   
    25   13   15 1   
    26   16   17 1   
    27   16   35 1   
    28   16   36 1   
    29   17   18 ar  
    30   17   25 ar  
    31   18   19 ar  
    32   18   37 1   
    33   19   20 1   
    34   19   23 ar  
    35   20   21 1   
    36   21   22 1   
    37   21   38 1   
    38   21   39 1   
    39   22   23 1   
    40   23   24 ar  
    41   24   25 ar  
    42   24   40 1   
    43   25   41 1   
@<TRIPOS>SUBSTRUCTURE
     1 BYS         1 TEMP              0 ****  ****    0 ROOT
