@<TRIPOS>MOLECULE
molecule
   41    43     1     0     0
SMALL
bcc


@<TRIPOS>ATOM
      1 C1           1.5060     0.0000     0.0000 c3         1 BYS      -0.145700
      2 C2           0.0000     0.0000     0.0000 c          1 BYS       0.913600
      3 O3          -0.6040    -1.0410     0.1100 o          1 BYS      -0.858300
      4 O4          -0.6710     1.1560    -0.1230 o          1 BYS      -0.858300
      5 C5           2.0170     0.0000     1.4410 c3         1 BYS      -0.033100
      6 C6           1.5780     1.2660     2.1300 ca         1 BYS      -0.016300
      7 C7           0.4200     1.2760     2.8850 ca         1 BYS      -0.105000
      8 C8           0.0180     2.4380     3.5170 ca         1 BYS      -0.140500
      9 C9           0.7730     3.5890     3.3940 ca         1 BYS      -0.165000
     10 C10          1.9310     3.5780     2.6400 ca         1 BYS      -0.140500
     11 C11          2.3350     2.4150     2.0110 ca         1 BYS      -0.105000
     12 C12          2.0170    -1.2480    -0.7230 c3         1 BYS      -0.147700
     13 C13          1.4330    -1.2990    -2.1110 c          1 BYS       0.912600
     14 O14          1.2660    -0.2770    -2.7330 o          1 BYS      -0.858300
     15 O15          1.0990    -2.4780    -2.6560 o          1 BYS      -0.858300
     16 C16          3.5420    -1.1960    -0.8130 c3         1 BYS      -0.028100
     17 C17          4.0460    -2.4260    -1.5250 ca         1 BYS      -0.015300
     18 C18          4.3620    -3.5600    -0.8010 ca         1 BYS      -0.108000
     19 C19          4.8190    -4.6930    -1.4540 ca         1 BYS       0.024100
     20 O20          5.1910    -5.9210    -0.9850 os         1 BYS      -0.350900
     21 C21          5.1800    -6.7900    -2.1310 c3         1 BYS       0.333200
     22 O22          5.4350    -5.9030    -3.2360 os         1 BYS      -0.353900
     23 C23          4.9700    -4.6830    -2.8380 ca         1 BYS       0.006100
     24 C24          4.6560    -3.5410    -3.5550 ca         1 BYS      -0.110000
     25 C25          4.1950    -2.4150    -2.8980 ca         1 BYS      -0.070000
     26 HC11         1.8670     0.8850    -0.5100 hc         1 BYS       0.059700
     27 HC51         3.0990    -0.0550     1.4410 hc         1 BYS       0.024700
     28 HC52         1.6120    -0.8560     1.9680 hc         1 BYS       0.024700
     29 HC71        -0.1720     0.3740     2.9820 ha         1 BYS       0.131500
     30 HC81        -0.8900     2.4470     4.1090 ha         1 BYS       0.098000
     31 HC91         0.4570     4.4990     3.8880 ha         1 BYS       0.091000
     32 H101         2.5240     4.4800     2.5450 ha         1 BYS       0.098000
     33 H111         3.2430     2.4070     1.4200 ha         1 BYS       0.131500
     34 H121         1.7180    -2.1320    -0.1730 hc         1 BYS       0.061700
     35 H161         3.9620    -1.1600     0.1860 hc         1 BYS       0.026700
     36 H162         3.8420    -0.3130    -1.3630 hc         1 BYS       0.026700
     37 H181         4.2960    -3.5480     0.2810 ha         1 BYS       0.130000
     38 H211         5.9810    -7.5160    -2.0500 h2         1 BYS       0.048200
     39 H212         4.2020    -7.2420    -2.2410 h2         1 BYS       0.048200
     40 H241         4.7730    -3.5290    -4.6320 ha         1 BYS       0.120000
     41 H251         3.9750    -1.5150    -3.4580 ha         1 BYS       0.161000
@<TRIPOS>BOND
     1     1     2 1
     2     1     5 1
     3     1    12 1
     4     1    26 1
     5     2     3 1
     6     2     4 1
     7     5     6 1
     8     5    27 1
     9     5    28 1
    10     6     7 ar
    11     6    11 ar
    12     7     8 ar
    13     7    29 1
    14     8     9 ar
    15     8    30 1
    16     9    10 ar
    17     9    31 1
    18    10    11 ar
    19    10    32 1
    20    11    33 1
    21    12    13 1
    22    12    16 1
    23    12    34 1
    24    13    14 1
    25    13    15 1
    26    16    17 1
    27    16    35 1
    28    16    36 1
    29    17    18 ar
    30    17    25 ar
    31    18    19 ar
    32    18    37 1
    33    19    20 1
    34    19    23 ar
    35    20    21 1
    36    21    22 1
    37    21    38 1
    38    21    39 1
    39    22    23 1
    40    23    24 ar
    41    24    25 ar
    42    24    40 1
    43    25    41 1
@<TRIPOS>SUBSTRUCTURE
     1 BYS         1 TEMP              0 ****  ****    0 ROOT
