@<TRIPOS>MOLECULE
molecule
   53    54     1     0     0
SMALL
bcc


@<TRIPOS>ATOM
      1 N01          0.0000     0.0000     0.0000 nz         1 BYT      -0.790600
      2 C02          1.4690     0.0000     0.0000 c3         1 BYT      -0.018500
      3 C03          1.9790     1.2500    -0.7210 c3         1 BYT      -0.090400
      4 C04          1.5750     1.1880    -2.1950 c3         1 BYT      -0.097400
      5 C05          2.0850     2.4380    -2.9160 c3         1 BYT      -0.098400
      6 C06          1.6800     2.3770    -4.3910 c3         1 BYT       0.112000
      7 N07          2.1690     3.5730    -5.0810 ns         1 BYT      -0.591900
      8 C08          1.9290     3.7360    -6.3970 c          1 BYT       0.658100
      9 O09          1.3080     2.8950    -7.0100 o          1 BYT      -0.608100
     10 C10          2.4310     4.9670    -7.1070 c3         1 BYT      -0.157400
     11 C11          2.0270     4.9060    -8.5820 c3         1 BYT      -0.065400
     12 C12          2.5380     6.1560    -9.3020 c3         1 BYT      -0.087400
     13 C13          2.1330     6.0950   -10.7760 c3         1 BYT      -0.063400
     14 C14          2.6430     7.3440   -11.4980 c3         1 BYT       0.028400
     15 S15          1.6810     8.8280   -10.9920 ss         1 BYT      -0.362200
     16 C16          1.9680     9.7400   -12.5620 c3         1 BYT       0.015700
     17 C17          1.9780     8.6120   -13.6130 c3         1 BYT       0.082700
     18 N18          0.6110     8.4060   -14.1150 ns         1 BYT      -0.597900
     19 C19          0.2370     7.1460   -13.8600 c          1 BYT       0.819500
     20 O20         -0.8520     6.7010   -14.1690 o          1 BYT      -0.679500
     21 N21          1.1710     6.4190   -13.2330 ns         1 BYT      -0.595900
     22 C22          2.3610     7.2560   -13.0100 c3         1 BYT       0.091700
     23 C23          1.9710     0.0000     1.4200 c          1 BYT       0.868600
     24 O24          3.2240    -0.3980     1.6890 o          1 BYT      -0.775300
     25 O25          1.2460     0.3580     2.3180 o          1 BYT      -0.775300
     26 H1          -0.3340     0.9170     0.2210 hn         1 BYT       0.439467
     27 H2          -0.3340    -0.6500     0.6840 hn         1 BYT       0.439467
     28 H4           1.8310    -0.8840    -0.5110 hx         1 BYT       0.105700
     29 H5           1.5470     2.1320    -0.2640 hc         1 BYT       0.086200
     30 H6           3.0590     1.2960    -0.6440 hc         1 BYT       0.086200
     31 H7           2.0080     0.3060    -2.6520 hc         1 BYT       0.034200
     32 H8           0.4950     1.1420    -2.2720 hc         1 BYT       0.034200
     33 H9           1.6530     3.3200    -2.4590 hc         1 BYT       0.054700
     34 H10          3.1650     2.4840    -2.8390 hc         1 BYT       0.054700
     35 H11          0.6010     2.3320    -4.4670 h1         1 BYT       0.052200
     36 H12          2.1120     1.4950    -4.8480 h1         1 BYT       0.052200
     37 H13          2.6940     4.2610    -4.5780 hn         1 BYT       0.315500
     38 H14          1.9980     5.8490    -6.6500 hc         1 BYT       0.061200
     39 H15          3.5110     5.0130    -7.0290 hc         1 BYT       0.061200
     40 H16          2.4600     4.0240    -9.0380 hc         1 BYT       0.060200
     41 H17          0.9480     4.8600    -8.6590 hc         1 BYT       0.060200
     42 H18          2.1050     7.0380    -8.8450 hc         1 BYT       0.047700
     43 H19          3.6170     6.2020    -9.2260 hc         1 BYT       0.047700
     44 H20          1.0530     6.0500   -10.8530 hc         1 BYT       0.060200
     45 H21          2.5650     5.2130   -11.2330 hc         1 BYT       0.060200
     46 H22          3.7000     7.4950   -11.3150 h1         1 BYT       0.076700
     47 H23          2.9730    10.1440   -12.5170 h1         1 BYT       0.091200
     48 H24          1.0860    10.3410   -12.7470 h1         1 BYT       0.091200
     49 H25          2.6450     8.8630   -14.4300 h1         1 BYT       0.067700
     50 H26          0.0510     9.0970   -14.5750 hn         1 BYT       0.362500
     51 H27          1.0750     5.4610   -12.9600 hn         1 BYT       0.364500
     52 H28          3.2160     6.8400   -13.5300 h1         1 BYT       0.068700
     53 H013        -0.3340    -0.2670    -0.9050 hn         1 BYT       0.439467
@<TRIPOS>BOND
     1    24    23 1
     2    25    23 1
     3    23     2 1
     4     2     3 1
     5     2     1 1
     6     3     4 1
     7     5     4 1
     8     5     6 1
     9     9     8 2
    10     8    10 1
    11     8     7 1
    12     6     7 1
    13    10    11 1
    14    11    12 1
    15    12    13 1
    16    13    14 1
    17    15    14 1
    18    15    16 1
    19    14    22 1
    20    21    22 1
    21    21    19 1
    22    22    17 1
    23    16    17 1
    24    20    19 2
    25    19    18 1
    26    17    18 1
    27     1    26 1
    28     1    27 1
    29     2    28 1
    30     3    29 1
    31     3    30 1
    32     4    31 1
    33     4    32 1
    34     5    33 1
    35     5    34 1
    36     6    35 1
    37     6    36 1
    38     7    37 1
    39    10    38 1
    40    10    39 1
    41    11    40 1
    42    11    41 1
    43    12    42 1
    44    12    43 1
    45    13    44 1
    46    13    45 1
    47    14    46 1
    48    16    47 1
    49    16    48 1
    50    17    49 1
    51    18    50 1
    52    21    51 1
    53    22    52 1
    54    53     1 1
@<TRIPOS>SUBSTRUCTURE
     1 BYT         1 TEMP              0 ****  ****    0 ROOT
