@<TRIPOS>MOLECULE
BYT
   53    54     1     0     0
SMALL
bcc


@<TRIPOS>ATOM
      1 N01          0.0000     0.0000     0.0000 nz         1 BYT       0.083400
      2 C02          1.4690     0.0000     0.0000 c3         1 BYT      -0.202500
      3 C03          1.9790     1.2500    -0.7210 c3         1 BYT      -0.022400
      4 C04          1.5750     1.1880    -2.1950 c3         1 BYT      -0.040400
      5 C05          2.0850     2.4380    -2.9160 c3         1 BYT      -0.036400
      6 C06          1.6800     2.3770    -4.3910 c3         1 BYT       0.051000
      7 N07          2.1690     3.5730    -5.0810 ns         1 BYT      -0.205900
      8 C08          1.9290     3.7360    -6.3970 c          1 BYT       0.573100
      9 O09          1.3080     2.8950    -7.0100 o          1 BYT      -0.645100
     10 C10          2.4310     4.9670    -7.1070 c3         1 BYT      -0.096400
     11 C11          2.0270     4.9060    -8.5820 c3         1 BYT      -0.013400
     12 C12          2.5380     6.1560    -9.3020 c3         1 BYT      -0.036400
     13 C13          2.1330     6.0950   -10.7760 c3         1 BYT      -0.016400
     14 C14          2.6430     7.3440   -11.4980 c3         1 BYT       0.064400
     15 S15          1.6810     8.8280   -10.9920 ss         1 BYT      -0.410200
     16 C16          1.9680     9.7400   -12.5620 c3         1 BYT       0.089700
     17 C17          1.9780     8.6120   -13.6130 c3         1 BYT      -0.002300
     18 N18          0.6110     8.4060   -14.1150 ns         1 BYT      -0.212900
     19 C19          0.2370     7.1460   -13.8600 c          1 BYT       0.622500
     20 O20         -0.8520     6.7010   -14.1690 o          1 BYT      -0.724500
     21 N21          1.1710     6.4190   -13.2330 ns         1 BYT      -0.216900
     22 C22          2.3610     7.2560   -13.0100 c3         1 BYT       0.009700
     23 C23          1.9710     0.0000     1.4200 c          1 BYT       0.955600
     24 O24          3.2240    -0.3980     1.6890 o          1 BYT      -0.817800
     25 O25          1.2460     0.3580     2.3180 o          1 BYT      -0.817800
     26 H1          -0.3340     0.9170     0.2210 hn         1 BYT       0.211467
     27 H2          -0.3340    -0.6500     0.6840 hn         1 BYT       0.211467
     28 H4           1.8310    -0.8840    -0.5110 hx         1 BYT       0.087700
     29 H5           1.5470     2.1320    -0.2640 hc         1 BYT       0.054700
     30 H6           3.0590     1.2960    -0.6440 hc         1 BYT       0.054700
     31 H7           2.0080     0.3060    -2.6520 hc         1 BYT       0.008200
     32 H8           0.4950     1.1420    -2.2720 hc         1 BYT       0.008200
     33 H9           1.6530     3.3200    -2.4590 hc         1 BYT       0.025200
     34 H10          3.1650     2.4840    -2.8390 hc         1 BYT       0.025200
     35 H11          0.6010     2.3320    -4.4670 h1         1 BYT       0.025200
     36 H12          2.1120     1.4950    -4.8480 h1         1 BYT       0.025200
     37 H13          2.6940     4.2610    -4.5780 hn         1 BYT       0.177500
     38 H14          1.9980     5.8490    -6.6500 hc         1 BYT       0.028700
     39 H15          3.5110     5.0130    -7.0290 hc         1 BYT       0.028700
     40 H16          2.4600     4.0240    -9.0380 hc         1 BYT       0.031700
     41 H17          0.9480     4.8600    -8.6590 hc         1 BYT       0.031700
     42 H18          2.1050     7.0380    -8.8450 hc         1 BYT       0.022700
     43 H19          3.6170     6.2020    -9.2260 hc         1 BYT       0.022700
     44 H20          1.0530     6.0500   -10.8530 hc         1 BYT       0.034200
     45 H21          2.5650     5.2130   -11.2330 hc         1 BYT       0.034200
     46 H22          3.7000     7.4950   -11.3150 h1         1 BYT       0.059700
     47 H23          2.9730    10.1440   -12.5170 h1         1 BYT       0.065200
     48 H24          1.0860    10.3410   -12.7470 h1         1 BYT       0.065200
     49 H25          2.6450     8.8630   -14.4300 h1         1 BYT       0.039700
     50 H26          0.0510     9.0970   -14.5750 hn         1 BYT       0.215500
     51 H27          1.0750     5.4610   -12.9600 hn         1 BYT       0.222500
     52 H28          3.2160     6.8400   -13.5300 h1         1 BYT       0.039700
     53 H013        -0.3340    -0.2670    -0.9050 hn         1 BYT       0.211467
@<TRIPOS>BOND
     1     1     2 1   
     2     1    26 1   
     3     1    27 1   
     4     1    53 1   
     5     2     3 1   
     6     2    23 1   
     7     2    28 1   
     8     3     4 1   
     9     3    29 1   
    10     3    30 1   
    11     4     5 1   
    12     4    31 1   
    13     4    32 1   
    14     5     6 1   
    15     5    33 1   
    16     5    34 1   
    17     6     7 1   
    18     6    35 1   
    19     6    36 1   
    20     7     8 1   
    21     7    37 1   
    22     8     9 2   
    23     8    10 1   
    24    10    11 1   
    25    10    38 1   
    26    10    39 1   
    27    11    12 1   
    28    11    40 1   
    29    11    41 1   
    30    12    13 1   
    31    12    42 1   
    32    12    43 1   
    33    13    14 1   
    34    13    44 1   
    35    13    45 1   
    36    14    15 1   
    37    14    22 1   
    38    14    46 1   
    39    15    16 1   
    40    16    17 1   
    41    16    47 1   
    42    16    48 1   
    43    17    18 1   
    44    17    22 1   
    45    17    49 1   
    46    18    19 1   
    47    18    50 1   
    48    19    20 2   
    49    19    21 1   
    50    21    22 1   
    51    21    51 1   
    52    22    52 1   
    53    23    24 1   
    54    23    25 1   
@<TRIPOS>SUBSTRUCTURE
     1 BYT         1 TEMP              0 ****  ****    0 ROOT
