@<TRIPOS>MOLECULE
molecule
   47    48     1     0     0
SMALL
bcc


@<TRIPOS>ATOM
      1 N17         -1.2960    -0.0190    -2.2180 n1         1 BYV      -0.367800
      2 C17         -0.7200    -0.0000    -1.2380 cg         1 BYV       0.241800
      3 C13          0.0000     0.0000     0.0000 ca         1 BYV      -0.019000
      4 C14          1.3960     0.0000     0.0000 ca         1 BYV      -0.093000
      5 C15          2.0830     0.0000     1.1960 ca         1 BYV      -0.083300
      6 C18          3.5900    -0.0010     1.1990 c3         1 BYV      -0.036100
      7 C19          4.1010     1.4420     1.1990 c3         1 BYV      -0.079400
      8 C20          5.6300     1.4410     1.2000 c3         1 BYV       0.152800
      9 N21          6.1200     2.8250     1.2010 n7         1 BYV      -0.809200
     10 C22          7.5890     2.8640     1.2030 c3         1 BYV       0.140100
     11 C12         -0.6920     0.0070     1.2130 ca         1 BYV      -0.093000
     12 C11          0.0070     0.0080     2.4010 ca         1 BYV      -0.084300
     13 C16          1.3900     0.0010     2.3940 ca         1 BYV      -0.099000
     14 C09         -0.7380     0.0150     3.7120 c3         1 BYV      -0.031100
     15 C08         -0.9970    -1.4260     4.1600 c3         1 BYV      -0.120700
     16 C06         -1.7420    -1.4180     5.4690 ca         1 BYV       0.475600
     17 N01         -1.2430    -0.7600     6.4980 nb         1 BYV      -0.774000
     18 C02         -1.8630    -0.7250     7.6680 ca         1 BYV       0.712200
     19 N02         -1.3030    -0.0180     8.7250 nv         1 BYV      -1.013500
     20 C03         -3.0720    -1.3910     7.8470 ca         1 BYV      -0.328300
     21 C04         -3.6190    -2.0900     6.7870 ca         1 BYV      -0.002300
     22 C05         -2.9390    -2.0960     5.5750 ca         1 BYV      -0.310300
     23 C07         -4.9260    -2.8240     6.9400 c3         1 BYV      -0.050800
     24 H1           1.9370    -0.0450    -0.9370 ha         1 BYV       0.141000
     25 H2           3.9520    -0.5060     0.3110 hc         1 BYV       0.050700
     26 H3           3.9490    -0.5190     2.0800 hc         1 BYV       0.050700
     27 H4           3.7300     1.9560     0.3210 hc         1 BYV       0.053700
     28 H5           3.7500     1.9490     2.0900 hc         1 BYV       0.053700
     29 H6           5.9900     0.9050     2.0700 h1         1 BYV       0.031700
     30 H7           5.9920     0.9550     0.3020 h1         1 BYV       0.031700
     31 H8           5.8170     3.2870     0.3670 hn         1 BYV       0.347800
     32 H10          7.9630     2.3630     2.0880 h1         1 BYV       0.031367
     33 H11          7.9650     2.3620     0.3190 h1         1 BYV       0.031367
     34 H12          7.9230     3.8940     1.2030 h1         1 BYV       0.031367
     35 H13         -1.7750    -0.0070     1.2180 ha         1 BYV       0.142000
     36 H14          1.9320     0.0010     3.3330 ha         1 BYV       0.141000
     37 H15         -1.6760     0.5430     3.5910 hc         1 BYV       0.063200
     38 H16         -0.1380     0.5110     4.4650 hc         1 BYV       0.063200
     39 H17         -0.0520    -1.9410     4.2840 hc         1 BYV       0.057700
     40 H18         -1.5900    -1.9360     3.4100 hc         1 BYV       0.057700
     41 H19         -0.4320     0.4600     8.6020 hn         1 BYV       0.439300
     42 H20         -1.7700     0.0140     9.6090 hn         1 BYV       0.439300
     43 H21         -3.5720    -1.3570     8.8080 ha         1 BYV       0.134000
     44 H22         -3.3380    -2.6290     4.7200 ha         1 BYV       0.137000
     45 H23         -5.7460    -2.1510     6.7210 hc         1 BYV       0.047700
     46 H24         -5.0190    -3.1880     7.9560 hc         1 BYV       0.047700
     47 H25         -4.9530    -3.6610     6.2520 hc         1 BYV       0.047700
@<TRIPOS>BOND
     1    23    21 1
     2    21    20 ar
     3    21    22 ar
     4    20    18 ar
     5    22    16 ar
     6    14    12 1
     7    14    15 1
     8    18    19 1
     9    18    17 ar
    10    16    17 ar
    11    16    15 1
    12    12    11 ar
    13    12    13 ar
    14    11     3 ar
    15    13     5 ar
    16     3     2 1
    17     3     4 ar
    18     1     2 3
    19     5     4 ar
    20     5     6 1
    21     6     7 1
    22     7     8 1
    23     8     9 1
    24     9    10 1
    25     4    24 1
    26     6    25 1
    27     6    26 1
    28     7    27 1
    29     7    28 1
    30     8    29 1
    31     8    30 1
    32     9    31 1
    33    10    32 1
    34    10    33 1
    35    10    34 1
    36    11    35 1
    37    13    36 1
    38    14    37 1
    39    14    38 1
    40    15    39 1
    41    15    40 1
    42    19    41 1
    43    19    42 1
    44    20    43 1
    45    22    44 1
    46    23    45 1
    47    23    46 1
    48    23    47 1
@<TRIPOS>SUBSTRUCTURE
     1 BYV         1 TEMP              0 ****  ****    0 ROOT
