@<TRIPOS>MOLECULE
BYV
   47    48     1     0     0
SMALL
bcc


@<TRIPOS>ATOM
      1 N17         -1.2960    -0.0190    -2.2180 n1         1 BYV      -0.387800
      2 C17         -0.7200    -0.0000    -1.2380 cg         1 BYV       0.235800
      3 C13          0.0000     0.0000     0.0000 ca         1 BYV       0.027000
      4 C14          1.3960     0.0000     0.0000 ca         1 BYV      -0.075000
      5 C15          2.0830     0.0000     1.1960 ca         1 BYV      -0.087300
      6 C18          3.5900    -0.0010     1.1990 c3         1 BYV       0.031900
      7 C19          4.1010     1.4420     1.1990 c3         1 BYV      -0.028400
      8 C20          5.6300     1.4410     1.2000 c3         1 BYV       0.142800
      9 N21          6.1200     2.8250     1.2010 n7         1 BYV      -0.581200
     10 C22          7.5890     2.8640     1.2030 c3         1 BYV       0.176100
     11 C12         -0.6920     0.0070     1.2130 ca         1 BYV      -0.075000
     12 C11          0.0070     0.0080     2.4010 ca         1 BYV      -0.086300
     13 C16          1.3900     0.0010     2.3940 ca         1 BYV      -0.073000
     14 C09         -0.7380     0.0150     3.7120 c3         1 BYV       0.029900
     15 C08         -0.9970    -1.4260     4.1600 c3         1 BYV      -0.067700
     16 C06         -1.7420    -1.4180     5.4690 ca         1 BYV       0.426600
     17 N01         -1.2430    -0.7600     6.4980 nb         1 BYV      -0.658000
     18 C02         -1.8630    -0.7250     7.6680 ca         1 BYV       0.516200
     19 N02         -1.3030    -0.0180     8.7250 nv         1 BYV      -0.533500
     20 C03         -3.0720    -1.3910     7.8470 ca         1 BYV      -0.312300
     21 C04         -3.6190    -2.0900     6.7870 ca         1 BYV      -0.001300
     22 C05         -2.9390    -2.0960     5.5750 ca         1 BYV      -0.289300
     23 C07         -4.9260    -2.8240     6.9400 c3         1 BYV       0.060200
     24 H1           1.9370    -0.0450    -0.9370 ha         1 BYV       0.115000
     25 H2           3.9520    -0.5060     0.3110 hc         1 BYV       0.019700
     26 H3           3.9490    -0.5190     2.0800 hc         1 BYV       0.019700
     27 H4           3.7300     1.9560     0.3210 hc         1 BYV       0.023700
     28 H5           3.7500     1.9490     2.0900 hc         1 BYV       0.023700
     29 H6           5.9900     0.9050     2.0700 h1         1 BYV       0.006200
     30 H7           5.9920     0.9550     0.3020 h1         1 BYV       0.006200
     31 H8           5.8170     3.2870     0.3670 hn         1 BYV       0.248800
     32 H10          7.9630     2.3630     2.0880 h1         1 BYV      -0.001633
     33 H11          7.9650     2.3620     0.3190 h1         1 BYV      -0.001633
     34 H12          7.9230     3.8940     1.2030 h1         1 BYV      -0.001633
     35 H13         -1.7750    -0.0070     1.2180 ha         1 BYV       0.116000
     36 H14          1.9320     0.0010     3.3330 ha         1 BYV       0.116000
     37 H15         -1.6760     0.5430     3.5910 hc         1 BYV       0.030200
     38 H16         -0.1380     0.5110     4.4650 hc         1 BYV       0.030200
     39 H17         -0.0520    -1.9410     4.2840 hc         1 BYV       0.024200
     40 H18         -1.5900    -1.9360     3.4100 hc         1 BYV       0.024200
     41 H19         -0.4320     0.4600     8.6020 hn         1 BYV       0.269800
     42 H20         -1.7700     0.0140     9.6090 hn         1 BYV       0.269800
     43 H21         -3.5720    -1.3570     8.8080 ha         1 BYV       0.119000
     44 H22         -3.3380    -2.6290     4.7200 ha         1 BYV       0.121000
     45 H23         -5.7460    -2.1510     6.7210 hc         1 BYV       0.010367
     46 H24         -5.0190    -3.1880     7.9560 hc         1 BYV       0.010367
     47 H25         -4.9530    -3.6610     6.2520 hc         1 BYV       0.010367
@<TRIPOS>BOND
     1     1     2 3   
     2     2     3 1   
     3     3     4 ar  
     4     3    11 ar  
     5     4     5 ar  
     6     4    24 1   
     7     5     6 1   
     8     5    13 ar  
     9     6     7 1   
    10     6    25 1   
    11     6    26 1   
    12     7     8 1   
    13     7    27 1   
    14     7    28 1   
    15     8     9 1   
    16     8    29 1   
    17     8    30 1   
    18     9    10 1   
    19     9    31 1   
    20    10    32 1   
    21    10    33 1   
    22    10    34 1   
    23    11    12 ar  
    24    11    35 1   
    25    12    13 ar  
    26    12    14 1   
    27    13    36 1   
    28    14    15 1   
    29    14    37 1   
    30    14    38 1   
    31    15    16 1   
    32    15    39 1   
    33    15    40 1   
    34    16    17 ar  
    35    16    22 ar  
    36    17    18 ar  
    37    18    19 1   
    38    18    20 ar  
    39    19    41 1   
    40    19    42 1   
    41    20    21 ar  
    42    20    43 1   
    43    21    22 ar  
    44    21    23 1   
    45    22    44 1   
    46    23    45 1   
    47    23    46 1   
    48    23    47 1   
@<TRIPOS>SUBSTRUCTURE
     1 BYV         1 TEMP              0 ****  ****    0 ROOT
