@<TRIPOS>MOLECULE
BYX
   28    28     1     0     0
SMALL
bcc


@<TRIPOS>ATOM
      1 O01          0.0000     0.0000     0.0000 o          1 BYX      -0.591100
      2 C02          1.2130     0.0000     0.0000 c          1 BYX       0.561600
      3 N03          1.8870     0.0000     1.1670 ns         1 BYX      -0.069900
      4 O04          1.1790     0.0000     2.3930 oh         1 BYX      -0.436100
      5 C05          1.9660    -0.0060    -1.3050 c3         1 BYX      -0.030100
      6 C06          0.9870    -0.0120    -2.4510 ca         1 BYX      -0.070300
      7 C07          0.5330    -1.2120    -2.9670 ca         1 BYX      -0.080000
      8 C08         -0.3690    -1.2170    -4.0130 ca         1 BYX      -0.080000
      9 C09         -0.8170    -0.0230    -4.5450 ca         1 BYX      -0.070300
     10 C10         -1.8010    -0.0270    -5.6860 c3         1 BYX      -0.030100
     11 C11         -3.2060    -0.0220    -5.1390 c          1 BYX       0.561600
     12 N12         -4.2570    -0.0260    -5.9820 ns         1 BYX      -0.069900
     13 O13         -5.5780    -0.0200    -5.4690 oh         1 BYX      -0.436100
     14 O14         -3.3900    -0.0140    -3.9410 o          1 BYX      -0.591100
     15 C15         -0.3650     1.1770    -4.0290 ca         1 BYX      -0.080000
     16 C16          0.5380     1.1830    -2.9820 ca         1 BYX      -0.080000
     17 H031         2.8880     0.0030     1.1670 hn         1 BYX       0.151500
     18 H1           1.7920    -0.0050     3.1100 ho         1 BYX       0.389000
     19 H051         2.5890     0.8780    -1.3670 hc         1 BYX       0.025700
     20 H052         2.5890    -0.8910    -1.3590 hc         1 BYX       0.025700
     21 H071         0.8840    -2.1480    -2.5500 ha         1 BYX       0.101000
     22 H081        -0.7250    -2.1570    -4.4180 ha         1 BYX       0.101000
     23 H102        -1.6520    -0.9160    -6.2880 hc         1 BYX       0.025700
     24 H101        -1.6490     0.8530    -6.2980 hc         1 BYX       0.025700
     25 H121        -4.1060    -0.0320    -6.9720 hn         1 BYX       0.151500
     26 H2          -6.1930    -0.0230    -6.1830 ho         1 BYX       0.389000
     27 H151        -0.7170     2.1130    -4.4460 ha         1 BYX       0.101000
     28 H161         0.8930     2.1230    -2.5770 ha         1 BYX       0.101000
@<TRIPOS>BOND
     1     1     2 2   
     2     2     3 1   
     3     2     5 1   
     4     3     4 1   
     5     3    17 1   
     6     4    18 1   
     7     5     6 1   
     8     5    19 1   
     9     5    20 1   
    10     6     7 ar  
    11     6    16 ar  
    12     7     8 ar  
    13     7    21 1   
    14     8     9 ar  
    15     8    22 1   
    16     9    10 1   
    17     9    15 ar  
    18    10    11 1   
    19    10    23 1   
    20    10    24 1   
    21    11    12 1   
    22    11    14 2   
    23    12    13 1   
    24    12    25 1   
    25    13    26 1   
    26    15    16 ar  
    27    15    27 1   
    28    16    28 1   
@<TRIPOS>SUBSTRUCTURE
     1 BYX         1 TEMP              0 ****  ****    0 ROOT
