@<TRIPOS>MOLECULE
molecule
   31    32     1     0     0
SMALL
bcc


@<TRIPOS>ATOM
      1 O3           0.0000     0.0000     0.0000 o          1 BYY      -0.688500
      2 C3           1.2160     0.0000     0.0000 c          1 BYY       0.819500
      3 N1           1.9460     0.0000     1.1240 ns         1 BYY      -0.602900
      4 N2           1.9480    -0.0060    -1.1230 ns         1 BYY      -0.591900
      5 C4           3.3750    -0.0050    -0.7620 c3         1 BYY       0.090700
      6 C5           3.3750    -0.0010     0.7650 c3         1 BYY       0.093700
      7 C6           4.0590    -1.2150     1.4320 c3         1 BYY       0.062700
      8 SE1          3.8950    -2.5950     0.0090 ss         1 BYY      -0.445200
      9 C2           4.0600    -1.2240    -1.4190 c3         1 BYY       0.101400
     10 C7           3.3140    -1.6550    -2.6830 c3         1 BYY      -0.077400
     11 C8           3.9240    -2.9530    -3.2180 c3         1 BYY      -0.088400
     12 C9           3.1780    -3.3850    -4.4810 c3         1 BYY      -0.063400
     13 C10          3.7880    -4.6820    -5.0150 c3         1 BYY      -0.182400
     14 C11          3.0530    -5.1070    -6.2610 c          1 BYY       0.891600
     15 O11          3.4170    -6.2270    -6.9070 o          1 BYY      -0.856300
     16 O12          2.1350    -4.4410    -6.6780 o          1 BYY      -0.856300
     17 H1           1.5810     0.0010     2.0560 hn         1 BYY       0.355500
     18 H2           1.5830    -0.0080    -2.0550 hn         1 BYY       0.372500
     19 H3           3.8370     0.9060    -1.1240 h1         1 BYY       0.057700
     20 H4           3.8350     0.9120     1.1220 h1         1 BYY       0.051700
     21 H5           3.5260    -1.5160     2.3260 h1         1 BYY       0.070200
     22 H6           5.1000    -1.0020     1.6450 h1         1 BYY       0.070200
     23 H7           5.1020    -1.0130    -1.6290 h1         1 BYY       0.074700
     24 H8           2.2690    -1.8170    -2.4480 hc         1 BYY       0.056700
     25 H9           3.3990    -0.8800    -3.4350 hc         1 BYY       0.056700
     26 H10          4.9690    -2.7910    -3.4530 hc         1 BYY       0.039700
     27 H11          3.8390    -3.7290    -2.4660 hc         1 BYY       0.039700
     28 H12          3.2630    -2.6100    -5.2330 hc         1 BYY       0.046700
     29 H13          2.1330    -3.5470    -4.2470 hc         1 BYY       0.046700
     30 H14          4.8330    -4.5200    -5.2500 hc         1 BYY       0.028700
     31 H15          3.7030    -5.4570    -4.2630 hc         1 BYY       0.028700
@<TRIPOS>BOND
     1    16    14 1
     2    13    14 1
     3    13    12 1
     4    14    15 1
     5    12    11 1
     6    11    10 1
     7    10     9 1
     8     8     9 1
     9     8     7 1
    10     9     5 1
    11     4     5 1
    12     4     2 1
    13     5     6 1
    14     7     6 1
    15     2     1 2
    16     2     3 1
    17     6     3 1
    18     3    17 1
    19     4    18 1
    20     5    19 1
    21     6    20 1
    22     7    21 1
    23     7    22 1
    24     9    23 1
    25    10    24 1
    26    10    25 1
    27    11    26 1
    28    11    27 1
    29    12    28 1
    30    12    29 1
    31    13    30 1
    32    13    31 1
@<TRIPOS>SUBSTRUCTURE
     1 BYY         1 TEMP              0 ****  ****    0 ROOT
