@<TRIPOS>MOLECULE
molecule
    9     9     1     0     0
SMALL
bcc


@<TRIPOS>ATOM
      1 Br4          0.0000     0.0000     0.0000 br         1 BYZ      -0.070100
      2 C4           1.8910     0.0000     0.0000 cc         1 BYZ      -0.244200
      3 C5           2.6880     0.0000     1.0950 cd         1 BYZ      -0.081300
      4 N1           3.9700    -0.0010     0.6710 na         1 BYZ      -0.039600
      5 N2           3.9600    -0.0020    -0.7300 nc         1 BYZ      -0.504800
      6 C3           2.7150    -0.0060    -1.1310 cd         1 BYZ       0.363200
      7 H1           2.3560     0.0010     2.1260 h4         1 BYZ       0.181000
      8 H2           4.7830     0.0010     1.2540 hn         1 BYZ       0.335700
      9 H3           2.3790    -0.0080    -2.1610 h4         1 BYZ       0.060100
@<TRIPOS>BOND
     1     5     6 2
     2     5     4 1
     3     6     2 1
     4     4     3 1
     5     2     3 2
     6     2     1 1
     7     3     7 1
     8     4     8 1
     9     6     9 1
@<TRIPOS>SUBSTRUCTURE
     1 BYZ         1 TEMP              0 ****  ****    0 ROOT
