@<TRIPOS>MOLECULE
BYZ
    9     9     1     0     0
SMALL
bcc


@<TRIPOS>ATOM
      1 BR4        -0.0200   -0.0030   -0.0360 br        1 BYZ     -0.030100
      2 C4          1.8030   -0.0020    0.0070 cc        1 BYZ     -0.227200
      3 C5          2.6470   -0.0000    1.1350 cd        1 BYZ     -0.108300
      4 N1          3.9500   -0.0000    0.6440 na        1 BYZ     -0.017600
      5 N2          3.9950   -0.0030   -0.6900 nd        1 BYZ     -0.511800
      6 C3          2.7110   -0.0040   -1.1250 cc        1 BYZ      0.328200
      7 H1          2.4170    0.0020    2.2000 h4        1 BYZ      0.187000
      8 H2          4.7900    0.0010    1.1740 hn        1 BYZ      0.325700
      9 H3          2.4490   -0.0060   -2.1850 h4        1 BYZ      0.054100
@<TRIPOS>BOND
     1    1    2 1   
     2    2    3 2   
     3    2    6 1   
     4    3    4 1   
     5    3    7 1   
     6    4    5 1   
     7    4    8 1   
     8    5    6 2   
     9    6    9 1   
@<TRIPOS>SUBSTRUCTURE
     1 BYZ         1 TEMP              0 ****  ****    0 ROOT
