@<TRIPOS>MOLECULE
BZ0
   42    44     1     0     0
SMALL
bcc


@<TRIPOS>ATOM
      1 CAW          0.0000     0.0000     0.0000 ca         1 BZ0      -0.091000
      2 CAX          1.3820     0.0000     0.0000 ca         1 BZ0      -0.074500
      3 CBA          2.0740     0.0000     1.1970 ca         1 BZ0      -0.060000
      4 CAZ          1.3820    -0.0020     2.3940 ca         1 BZ0      -0.074500
      5 CAY         -0.0000    -0.0010     2.3950 ca         1 BZ0      -0.091000
      6 CAV         -0.6910    -0.0000     1.1970 ca         1 BZ0      -0.171300
      7 CAU         -2.1980     0.0070     1.1980 c3         1 BZ0       0.085300
      8 NAN         -2.6930    -1.3720     1.1950 n          1 BZ0       0.062000
      9 CAO         -2.9230    -2.0180     2.3860 cc         1 BZ0      -0.356400
     10 NAP         -2.6920    -1.3780     3.5810 nz         1 BZ0       0.251600
     11 CAM         -2.9240    -1.9960     0.0260 c          1 BZ0       0.593500
     12 OAL         -2.7180    -1.4060    -1.0180 o          1 BZ0      -0.641500
     13 NAD         -3.3770    -3.2620    -0.0110 ns         1 BZ0      -0.094500
     14 CAE         -3.6150    -3.9420     1.1280 c          1 BZ0       0.584700
     15 OAA         -4.0270    -5.0880     1.0840 o          1 BZ0      -0.558500
     16 CAF         -3.3890    -3.3180     2.3700 cd         1 BZ0      -0.086600
     17 NAG         -3.6350    -4.0080     3.5750 ns         1 BZ0      -0.106100
     18 OAC         -5.7520    -4.3760     3.0110 o          1 BZ0      -0.565100
     19 CA0         -4.8700    -4.4740     3.8430 c          1 BZ0       0.603700
     20 CAT         -5.1540    -5.1040     5.1500 ca         1 BZ0      -0.188600
     21 CAS         -6.4330    -5.5890     5.4320 ca         1 BZ0      -0.052000
     22 CAR         -6.6900    -6.1760     6.6540 ca         1 BZ0      -0.097000
     23 CAI         -5.6850    -6.2860     7.5970 ca         1 BZ0      -0.046000
     24 CAJ         -4.4160    -5.8080     7.3250 ca         1 BZ0      -0.097000
     25 CAK         -4.1430    -5.2230     6.1050 ca         1 BZ0      -0.052000
     26 HAY         -0.5410     0.0600     3.3310 ha         1 BZ0       0.100000
     27 HAZ          1.9240    -0.0000     3.3330 ha         1 BZ0       0.119500
     28 HBA          3.1560     0.0340     1.1970 ha         1 BZ0       0.122000
     29 HAX          1.9230     0.0050    -0.9380 ha         1 BZ0       0.119500
     30 HAW         -0.5410     0.0460    -0.9370 ha         1 BZ0       0.100000
     31 HAU1        -2.5560     0.5170     2.0850 h1         1 BZ0       0.050700
     32 HAU2        -2.5580     0.5220     0.3150 h1         1 BZ0       0.050700
     33 HAP1        -3.1110    -1.9000     4.3250 hn         1 BZ0       0.224800
     34 HAP2        -3.0910    -0.4610     3.5510 hn         1 BZ0       0.224800
     35 HAD         -3.5410    -3.7040    -0.8940 hn         1 BZ0       0.231500
     36 HAG         -2.8800    -4.2010     4.2020 hn         1 BZ0       0.191500
     37 HAS         -7.2210    -5.5030     4.6940 ha         1 BZ0       0.106500
     38 HAK         -3.1490    -4.8480     5.8930 ha         1 BZ0       0.106500
     39 HAR         -7.6820    -6.5530     6.8740 ha         1 BZ0       0.118000
     40 HAI         -5.8930    -6.7470     8.5560 ha         1 BZ0       0.116000
     41 HAJ         -3.6330    -5.8990     8.0680 ha         1 BZ0       0.118000
     42 HAP3        -1.7060    -1.2950     3.7290 hn         1 BZ0       0.224800
@<TRIPOS>BOND
     1     1     2 ar  
     2     1     6 ar  
     3     1    30 1   
     4     2     3 ar  
     5     2    29 1   
     6     3     4 ar  
     7     3    28 1   
     8     4     5 ar  
     9     4    27 1   
    10     5     6 ar  
    11     5    26 1   
    12     6     7 1   
    13     7     8 1   
    14     7    31 1   
    15     7    32 1   
    16     8     9 1   
    17     8    11 1   
    18     9    10 1   
    19     9    16 2   
    20    10    33 1   
    21    10    34 1   
    22    10    42 1   
    23    11    12 2   
    24    11    13 1   
    25    13    14 1   
    26    13    35 1   
    27    14    15 2   
    28    14    16 1   
    29    16    17 1   
    30    17    19 1   
    31    17    36 1   
    32    18    19 2   
    33    19    20 1   
    34    20    21 ar  
    35    20    25 ar  
    36    21    22 ar  
    37    21    37 1   
    38    22    23 ar  
    39    22    39 1   
    40    23    24 ar  
    41    23    40 1   
    42    24    25 ar  
    43    24    41 1   
    44    25    38 1   
@<TRIPOS>SUBSTRUCTURE
     1 BZ0         1 TEMP              0 ****  ****    0 ROOT
