@<TRIPOS>MOLECULE
BZ1
   46    45     1     0     0
SMALL
bcc


@<TRIPOS>ATOM
      1 C3        174.4840   27.3770  -49.3980 cx        1 BZ1     -0.100000
      2 C9        -71.4600  -12.3850   21.8180 c2        1 BZ1     -0.032000
      3 C10       -70.6840  -12.6290   22.9830 c2        1 BZ1     -1.158000
      4 C11       -71.0110  -11.4960   20.7300 c3        1 BZ1     -0.148000
      5 C12       -70.3200  -10.2290   21.2530 c3        1 BZ1      0.001000
      6 C4        175.8520   27.4730  -48.6810 cx        1 BZ1     -0.331000
      7 C5        -77.8920  -13.7880   27.0250 c3        1 BZ1     -0.276000
      8 S2        -71.4310  -13.6470   23.9590 ss        1 BZ1      1.143000
      9 C7        -72.7580  -13.8880   23.0440 c2        1 BZ1     -1.317000
     10 C8        -72.6550  -13.1090   21.8560 c2        1 BZ1     -0.049000
     11 S3        -69.1570  -11.8520   23.0910 s6        1 BZ1      2.890000
     12 O2        -68.2550  -12.6350   22.3720 o         1 BZ1     -0.917500
     13 O5        -68.8790  -11.6660   24.4540 o         1 BZ1     -0.917500
     14 N3        -69.4650  -10.4430   22.3880 n3        1 BZ1     -0.894000
     15 C2        174.6060   28.2770  -48.2390 cx        1 BZ1     -0.100000
     16 O1        176.7330   29.1550  -50.0800 oh        1 BZ1     -0.142000
     17 C1        176.9610   28.1220  -49.3010 c2        1 BZ1      0.313000
     18 H31       -69.1160   -9.5920   22.7690 hn        1 BZ1      0.265000
     19 H32       173.9580   26.4050  -49.3010 hc        1 BZ1      0.162000
     20 H11       -76.5990  -13.8930   23.8870 hn        1 BZ1      0.289000
     21 H121      -71.1150   -9.4770   21.5320 h1        1 BZ1      0.096000
     22 H122      -70.3010  -12.0670   20.0670 hc        1 BZ1      0.128000
     23 H41       174.6260   29.3740  -48.3960 hc        1 BZ1      0.162000
     24 H42       174.4130   27.8030  -50.4180 hc        1 BZ1      0.162000
     25 H51       -78.0260  -14.7720   27.5530 hc        1 BZ1      0.151000
     26 H52       -77.4120  -13.0770   27.7510 hc        1 BZ1      0.151000
     27 H53       -78.9000  -13.3900   26.7470 hc        1 BZ1      0.151000
     28 H61        48.4580   24.2380  -28.6730 ha        1 BZ1      0.000000
     29 H62        49.0990   24.4510  -28.7140 ha        1 BZ1      0.000000
     30 HN21      -73.5700  -16.5410   21.8700 hn        1 BZ1      0.265000
     31 HN22      -75.9470  -14.3830   26.1060 h4        1 BZ1      0.247000
     32 H8        -73.4310  -13.0750   21.0820 ha        1 BZ1      0.184000
     33 HN1       -78.1680  -13.3830   24.3550 hn        1 BZ1      0.289000
     34 H21       -69.7160   -9.7870   20.4070 h1        1 BZ1      0.096000
     35 H22       174.1730   27.9910  -47.2590 hc        1 BZ1      0.162000
     36 H11A      178.0020   27.7630  -49.1320 h4        1 BZ1      0.200000
     37 H12       177.5590   29.5350  -50.4610 ho        1 BZ1      0.312000
     38 H13       176.1530   26.6110  -48.0430 hc        1 BZ1      0.199000
     39 S1        -74.0950  -14.8000   23.2660 s6        1 BZ1      2.938000
     40 H23       -73.4860  -16.9970   23.4490 hn        1 BZ1      0.265000
     41 H123      -71.8800  -11.1800   20.0940 hc        1 BZ1      0.128000
     42 N1        -77.2710  -13.7370   24.6350 n3        1 BZ1     -0.169000
     43 C6        -76.9770  -13.9860   25.8790 c2        1 BZ1      0.146000
     44 N2        -73.6860  -16.2600   22.8150 n3        1 BZ1     -0.950000
     45 O3        -75.1880  -14.2930   22.5080 o         1 BZ1     -0.997500
     46 O4        -74.4950  -14.7990   24.6410 o         1 BZ1     -0.997500
@<TRIPOS>BOND
     1    1    6 1   
     2    1   15 1   
     3    1   19 1   
     4    1   24 1   
     5    2    3 1   
     6    2    4 1   
     7    2   10 1   
     8    3    8 1   
     9    3   11 1   
    10    4    5 1   
    11    4   22 1   
    12    4   41 1   
    13    5   14 1   
    14    5   21 1   
    15    5   34 1   
    16    6   15 1   
    17    6   17 1   
    18    6   38 1   
    19    7   25 1   
    20    7   26 1   
    21    7   27 1   
    22    7   43 1   
    23    8    9 1   
    24    9   10 1   
    25    9   39 1   
    26   10   32 1   
    27   11   12 1   
    28   11   13 1   
    29   11   14 1   
    30   14   18 1   
    31   15   23 1   
    32   15   35 1   
    33   16   17 1   
    34   16   37 1   
    35   17   36 1   
    36   20   42 1   
    37   28   29 1   
    38   30   44 1   
    39   31   43 1   
    40   33   42 1   
    41   39   44 1   
    42   39   45 1   
    43   39   46 1   
    44   40   44 1   
    45   42   43 1   
@<TRIPOS>SUBSTRUCTURE
     1 BZ1         1 TEMP              0 ****  ****    0 ROOT
