@<TRIPOS>MOLECULE
BZ2
   17    18     1     0     0
SMALL
bcc


@<TRIPOS>ATOM
      1 OAA        -0.0040    0.0270    0.1570 o         1 BZ2     -0.797300
      2 OAB         1.8520    0.0260   -1.1010 o         1 BZ2     -0.797300
      3 CAC         4.7890    0.0000    4.9770 ca        1 BZ2     -0.165000
      4 CAD         3.5260   -0.0060    5.5840 ca        1 BZ2     -0.150000
      5 CAE         4.9330    0.0090    3.5900 ca        1 BZ2     -0.110000
      6 CAF         2.3560   -0.0040    4.8260 ca        1 BZ2     -0.126000
      7 CAG         3.5040    0.0200    1.3820 cc        1 BZ2     -0.234200
      8 OAH         1.4900    0.0090    2.4930 os        1 BZ2     -0.174200
      9 CAI         1.2420    0.0240    0.0020 c         1 BZ2      0.933800
     10 CAJ         2.1290    0.0180    1.2390 cd        1 BZ2      0.029900
     11 CAK         3.7880    0.0120    2.8000 ca        1 BZ2     -0.085800
     12 CAL         2.5040    0.0050    3.4450 ca        1 BZ2      0.039100
     13 HAC         5.6860   -0.0020    5.6120 ha        1 BZ2      0.108000
     14 HAD         3.4570   -0.0130    6.6810 ha        1 BZ2      0.111000
     15 HAE         5.9290    0.0150    3.1290 ha        1 BZ2      0.121000
     16 HAF         1.3630   -0.0090    5.2910 ha        1 BZ2      0.135000
     17 HAG         4.2300    0.0270    0.5760 ha        1 BZ2      0.164000
@<TRIPOS>BOND
     1    1    9 1   
     2    2    9 1   
     3    3    4 ar  
     4    3    5 ar  
     5    3   13 1   
     6    4    6 ar  
     7    4   14 1   
     8    5   11 ar  
     9    5   15 1   
    10    6   12 ar  
    11    6   16 1   
    12    7   10 2   
    13    7   11 1   
    14    7   17 1   
    15    8   10 1   
    16    8   12 1   
    17    9   10 1   
    18   11   12 ar  
@<TRIPOS>SUBSTRUCTURE
     1 BZ2         1 TEMP              0 ****  ****    0 ROOT
