@<TRIPOS>MOLECULE
molecule
   20    21     1     0     0
SMALL
bcc


@<TRIPOS>ATOM
      1 CAA          0.0000     0.0000     0.0000 c3         1 BZ3       0.130700
      2 CAB          5.4480     0.0000     4.3050 cc         1 BZ3      -0.095100
      3 CAC          1.2850    -0.0040     2.3770 ca         1 BZ3      -0.192000
      4 CAD          5.4520    -0.0030     2.9630 cd         1 BZ3      -0.205200
      5 CAE          1.8940    -0.0070     3.6120 ca         1 BZ3      -0.108000
      6 CAF          3.4250    -0.0030     1.2810 ca         1 BZ3      -0.117000
      7 NAG          4.1600    -0.0040     4.7670 na         1 BZ3      -0.186400
      8 OAH          1.4290     0.0000     0.0000 os         1 BZ3      -0.331900
      9 CAI          2.0460    -0.0020     1.2120 ca         1 BZ3       0.110100
     10 CAJ          4.0530    -0.0020     2.5280 ca         1 BZ3      -0.068800
     11 CAK          3.2810    -0.0040     3.7040 ca         1 BZ3      -0.069200
     12 HAA         -0.3610     0.8840     0.5120 h1         1 BZ3       0.038700
     13 HAAA        -0.3610    -0.8850     0.5090 h1         1 BZ3       0.038700
     14 HAAB        -0.3610     0.0010    -1.0210 h1         1 BZ3       0.038700
     15 HAC          0.2030    -0.0030     2.3120 ha         1 BZ3       0.135000
     16 HAD          6.3260    -0.0000     2.3220 ha         1 BZ3       0.155000
     17 HAE          1.2910    -0.0080     4.5130 ha         1 BZ3       0.125000
     18 HAF          4.0160    -0.0020     0.3740 ha         1 BZ3       0.145000
     19 HNAG         3.8960    -0.0040     5.7320 hn         1 BZ3       0.293700
     20 HAB          6.3330     0.0050     4.9300 h4         1 BZ3       0.164000
@<TRIPOS>BOND
     1     8     1 1
     2     1    12 1
     3     1    13 1
     4     1    14 1
     5     7     2 1
     6     4     2 2
     7     2    20 1
     8     3     9 ar
     9     3     5 ar
    10     3    15 1
    11    10     4 1
    12     4    16 1
    13     5    11 ar
    14     5    17 1
    15     9     6 ar
    16     6    10 ar
    17     6    18 1
    18    11     7 1
    19     8     9 1
    20    11    10 ar
    21     7    19 1
@<TRIPOS>SUBSTRUCTURE
     1 BZ3         1 TEMP              0 ****  ****    0 ROOT
