@<TRIPOS>MOLECULE
BZ3
   20    21     1     0     0
SMALL
bcc


@<TRIPOS>ATOM
      1 CAA         0.0210   -0.0020   -0.0500 c3        1 BZ3      0.115700
      2 CAB         5.4790    0.0010    4.2910 cc        1 BZ3     -0.098100
      3 CAC         1.2540   -0.0050    2.4630 ca        1 BZ3     -0.178000
      4 CAD         5.4480   -0.0000    2.8990 cd        1 BZ3     -0.196200
      5 CAE         1.8840   -0.0030    3.6990 ca        1 BZ3     -0.114000
      6 CAF         3.4060   -0.0030    1.2740 ca        1 BZ3     -0.115000
      7 NAG         4.1800   -0.0000    4.8040 na        1 BZ3     -0.198400
      8 OAH         1.4400   -0.0060    0.0040 os        1 BZ3     -0.331900
      9 CAI         2.0070   -0.0040    1.2700 ca        1 BZ3      0.094100
     10 CAJ         4.0570   -0.0020    2.5040 ca        1 BZ3     -0.062800
     11 CAK         3.2840   -0.0020    3.7290 ca        1 BZ3     -0.074200
     12 HAA        -0.1990   -0.0010   -1.1480 h1        1 BZ3      0.041033
     13 HAAA       -0.3930    0.9170    0.4330 h1        1 BZ3      0.041033
     14 HAAB       -0.3980   -0.9180    0.4330 h1        1 BZ3      0.041033
     15 HAC         0.1560   -0.0060    2.4250 ha        1 BZ3      0.135000
     16 HAD         6.2990    0.0000    2.2270 ha        1 BZ3      0.158000
     17 HAE         1.2950   -0.0030    4.6260 ha        1 BZ3      0.132000
     18 HAF         3.9660   -0.0030    0.3300 ha        1 BZ3      0.152000
     19 HNAG        3.9310   -0.0010    5.7550 hn        1 BZ3      0.296700
     20 HAB         6.3390    0.0020    4.9640 h4        1 BZ3      0.163000
@<TRIPOS>BOND
     1    1    8 1   
     2    1   12 1   
     3    1   13 1   
     4    1   14 1   
     5    2    4 2   
     6    2    7 1   
     7    2   20 1   
     8    3    5 ar  
     9    3    9 ar  
    10    3   15 1   
    11    4   10 1   
    12    4   16 1   
    13    5   11 ar  
    14    5   17 1   
    15    6    9 ar  
    16    6   10 ar  
    17    6   18 1   
    18    7   11 1   
    19    7   19 1   
    20    8    9 1   
    21   10   11 ar  
@<TRIPOS>SUBSTRUCTURE
     1 BZ3         1 TEMP              0 ****  ****    0 ROOT
