@<TRIPOS>MOLECULE
BZ5
   38    39     1     0     0
SMALL
bcc


@<TRIPOS>ATOM
      1 CAK         0.2320   -0.4570    0.4350 c3        1 BZ5     -0.113000
      2 CAT         1.6400   -0.1320   -0.0770 c2        1 BZ5      0.025000
      3 CAI         2.7090   -0.1830    0.8760 c2        1 BZ5     -0.187000
      4 CAH         3.9990    0.0880    0.6090 c2        1 BZ5     -0.091000
      5 CAR         3.5780    0.8020   -2.9950 c1        1 BZ5     -0.251000
      6 CAJ         2.6860    0.5050   -2.2510 c1        1 BZ5     -0.062000
      7 CAU         1.6390    0.1640   -1.4110 c2        1 BZ5     -0.412000
      8 SAO        -0.0060    0.0570   -2.0380 ss        1 BZ5      0.838000
      9 CAS        -0.6150   -0.3250   -0.7300 c1        1 BZ5     -0.691000
     10 CAQ         6.2410   -2.1720    1.7760 c2        1 BZ5      0.214000
     11 CAX         5.3160   -1.1800    3.8750 c3        1 BZ5      0.006000
     12 CAP         3.8990   -1.0990    4.5780 c2        1 BZ5      0.361000
     13 CA0         5.1530   -1.3120    2.3390 c3        1 BZ5     -0.180000
     14 OAC         2.8880   -1.3370    3.8590 o         1 BZ5     -0.546500
     15 OAB         3.8820   -0.8590    5.8060 o         1 BZ5     -0.546500
     16 OAF         5.9990    0.0180    4.2050 oh        1 BZ5     -0.291000
     17 CAM         6.0750   -2.3800    4.4530 c3        1 BZ5     -0.217000
     18 CAV         5.7260   -3.6710    3.7280 c3        1 BZ5      0.041000
     19 OAD         6.2520   -4.8050    4.3880 oh        1 BZ5     -0.320000
     20 CAW         6.2210   -3.6110    2.2670 c3        1 BZ5     -0.059000
     21 OAE         7.5080   -4.2110    2.2130 oh        1 BZ5     -0.339000
     22 CAA         5.0510    0.0440    1.6540 c3        1 BZ5     -0.133000
     23 HAK         0.2070   -1.4920    0.8720 hc        1 BZ5      0.162000
     24 HAS        -0.0550    0.2500    1.2590 hc        1 BZ5      0.162000
     25 HAI         2.4200   -0.4770    1.9130 ha        1 BZ5      0.205000
     26 HAR         4.3300    0.3810   -0.4020 ha        1 BZ5      0.119000
     27 HAA1        6.0450    0.3180    1.2110 hc        1 BZ5      0.111000
     28 HAA2        4.8030    0.8190    2.4360 hc        1 BZ5      0.111000
     29 HAJ         4.3700    1.0610   -3.6480 ha        1 BZ5      0.217000
     30 HA0         4.1740   -1.8700    2.1950 hc        1 BZ5      0.169000
     31 HAW         5.5330   -4.2090    1.6040 h1        1 BZ5      0.104000
     32 HAF         6.8750   -0.0420    3.8030 ho        1 BZ5      0.166000
     33 HAM1        7.1820   -2.2060    4.3910 hc        1 BZ5      0.100000
     34 HAM2        5.8020   -2.4730    5.5380 hc        1 BZ5      0.100000
     35 HAV         4.6090   -3.8250    3.7390 h1        1 BZ5      0.144000
     36 HAD         7.2150   -4.7340    4.3560 ho        1 BZ5      0.204000
     37 HAE         8.0070   -3.7630    1.5160 ho        1 BZ5      0.217000
     38 OAN         7.1220   -1.8080    0.9860 o         1 BZ5     -0.338000
@<TRIPOS>BOND
     1    1    2 1   
     2    1    9 1   
     3    1   23 1   
     4    1   24 1   
     5    2    3 1   
     6    2    7 1   
     7    3    4 1   
     8    3   25 1   
     9    4   22 1   
    10    4   26 1   
    11    5    6 1   
    12    5   29 1   
    13    6    7 1   
    14    7    8 1   
    15    8    9 1   
    16   10   13 1   
    17   10   20 1   
    18   10   38 1   
    19   11   12 1   
    20   11   13 1   
    21   11   16 1   
    22   11   17 1   
    23   12   14 1   
    24   12   15 1   
    25   13   22 1   
    26   13   30 1   
    27   16   32 1   
    28   17   18 1   
    29   17   33 1   
    30   17   34 1   
    31   18   19 1   
    32   18   20 1   
    33   18   35 1   
    34   19   36 1   
    35   20   21 1   
    36   20   31 1   
    37   21   37 1   
    38   22   27 1   
    39   22   28 1   
@<TRIPOS>SUBSTRUCTURE
     1 BZ5         1 TEMP              0 ****  ****    0 ROOT
