@<TRIPOS>MOLECULE
molecule
   38    40     1     0     0
SMALL
bcc


@<TRIPOS>ATOM
      1 CAK          0.0000     0.0000     0.0000 cc         1 BZ5      -0.111200
      2 CAT          1.4530     0.0000     0.0000 ca         1 BZ5      -0.096800
      3 CAI          2.3490     0.0000     1.0920 ca         1 BZ5      -0.087000
      4 CAH          3.6930     0.0010     0.8810 ca         1 BZ5      -0.076300
      5 CAR          4.2070     0.0000    -0.4100 ca         1 BZ5      -0.075000
      6 CAJ          3.3570    -0.0000    -1.4910 ca         1 BZ5      -0.125000
      7 CAU          1.9730    -0.0000    -1.2980 ca         1 BZ5      -0.004100
      8 SAO          0.6550    -0.0010    -2.4630 ss         1 BZ5      -0.174500
      9 CAS         -0.5560     0.0000    -1.1950 cd         1 BZ5      -0.100400
     10 CAQ          5.5210    -2.2670     1.5580 c          1 BZ5       0.564100
     11 CAX          5.6220    -1.4090     3.8730 c3         1 BZ5       0.056800
     12 CAP          4.8560    -0.6880     4.9520 c          1 BZ5       0.874600
     13 CA0          4.7950    -1.4260     2.5840 c3         1 BZ5      -0.132700
     14 OAC          3.6510    -0.6310     4.9030 o          1 BZ5      -0.830300
     15 OAB          5.5140    -0.1080     5.9700 o          1 BZ5      -0.830300
     16 OAF          6.8600    -0.7360     3.6360 oh         1 BZ5      -0.634800
     17 CAM          5.9000    -2.8460     4.3180 c3         1 BZ5      -0.102400
     18 CAV          6.7500    -3.5650     3.2640 c3         1 BZ5       0.147100
     19 OAD          7.0730    -4.8780     3.7280 oh         1 BZ5      -0.617800
     20 CAW          5.9630    -3.6580     1.9530 c3         1 BZ5       0.042100
     21 OAE          6.7970    -4.2060     0.9310 oh         1 BZ5      -0.590800
     22 CAA          4.6340     0.0020     2.0580 c3         1 BZ5      -0.018100
     23 HAK         -0.5830     0.0010     0.9130 ha         1 BZ5       0.146000
     24 HAS         -1.6250     0.0010    -1.3710 h4         1 BZ5       0.156000
     25 HAI          1.9630     0.0000     2.1040 ha         1 BZ5       0.154000
     26 HAR          5.2790     0.0010    -0.5660 ha         1 BZ5       0.158000
     27 HAA1         4.2320     0.6330     2.8410 hc         1 BZ5       0.076200
     28 HAA2         5.6000     0.3830     1.7480 hc         1 BZ5       0.076200
     29 HAJ          3.7620    -0.0010    -2.4960 ha         1 BZ5       0.123000
     30 HA0          3.8210    -1.8570     2.7840 hc         1 BZ5       0.097700
     31 HAW          5.0930    -4.2870     2.0970 h1         1 BZ5       0.056700
     32 HAF          7.1680    -0.3520     4.4400 ho         1 BZ5       0.432000
     33 HAM1         6.4340    -2.8320     5.2610 hc         1 BZ5       0.062700
     34 HAM2         4.9600    -3.3710     4.4400 hc         1 BZ5       0.062700
     35 HAV          7.6610    -3.0040     3.0960 h1         1 BZ5       0.063700
     36 HAD          7.9950    -4.9250     3.9190 ho         1 BZ5       0.397000
     37 HAE          6.3090    -4.8430     0.4350 ho         1 BZ5       0.395000
     38 OAN          5.7380    -1.8400     0.4490 o          1 BZ5      -0.534100
@<TRIPOS>BOND
     1     1     2 1
     2     1     9 2
     3     2     3 ar
     4     2     7 ar
     5     3     4 ar
     6     4     5 ar
     7     4    22 1
     8     5     6 ar
     9     6     7 ar
    10     7     8 1
    11     8     9 1
    12    38    10 2
    13    10    13 1
    14    10    20 1
    15    11    12 1
    16    11    13 1
    17    11    16 1
    18    11    17 1
    19    12    14 1
    20    12    15 1
    21    13    22 1
    22    17    18 1
    23    18    19 1
    24    18    20 1
    25    20    21 1
    26     1    23 1
    27     9    24 1
    28     3    25 1
    29     5    26 1
    30    22    27 1
    31    22    28 1
    32     6    29 1
    33    13    30 1
    34    20    31 1
    35    16    32 1
    36    17    33 1
    37    17    34 1
    38    18    35 1
    39    19    36 1
    40    21    37 1
@<TRIPOS>SUBSTRUCTURE
     1 BZ5         1 TEMP              0 ****  ****    0 ROOT
