@<TRIPOS>MOLECULE
molecule
   43    46     1     0     0
SMALL
bcc


@<TRIPOS>ATOM
      1 C01          0.0000     0.0000     0.0000 c3         1 BZ6       0.127700
      2 C03          2.0460     0.0000     1.2110 ca         1 BZ6       0.150100
      3 C04          3.4330    -0.0000     1.2810 ca         1 BZ6      -0.193500
      4 C05          4.0620     0.0060     2.5090 ca         1 BZ6      -0.069000
      5 C06          3.3050     0.0120     3.6780 ca         1 BZ6      -0.158500
      6 C07          3.9790     0.0180     4.9990 cc         1 BZ6       0.425800
      7 C10          6.4000    -0.9730     7.4050 ca         1 BZ6       0.036800
      8 C11          7.2270    -1.9220     6.8210 ca         1 BZ6      -0.142000
      9 C12          8.2660    -2.4720     7.5480 ca         1 BZ6      -0.106500
     10 C13          8.4810    -2.0770     8.8550 ca         1 BZ6      -0.138000
     11 C14          7.6580    -1.1320     9.4400 ca         1 BZ6      -0.106500
     12 C15          6.6190    -0.5780     8.7170 ca         1 BZ6      -0.142000
     13 C16          4.4680     0.5210     7.1190 cd         1 BZ6      -0.084300
     14 C17          3.6120     0.8020     6.1120 cc         1 BZ6      -0.325600
     15 C18          2.4650     1.7790     6.1690 c3         1 BZ6       0.125600
     16 C20          2.6360     3.4140     4.2460 cd         1 BZ6      -0.270600
     17 C21          3.1660     4.6420     4.0940 cc         1 BZ6       0.306200
     18 C23          3.5370     4.0520     6.1360 cd         1 BZ6       0.391400
     19 C24          1.9130     0.0120     3.6040 ca         1 BZ6      -0.069000
     20 C25          1.2890     0.0060     2.3740 ca         1 BZ6      -0.193500
     21 N08          5.0220    -0.7110     5.3400 nd         1 BZ6      -0.493800
     22 N09          5.3500    -0.4090     6.6680 na         1 BZ6       0.156300
     23 N19          2.8680     3.0410     5.5430 na         1 BZ6      -0.182900
     24 N22          3.7070     5.0090     5.2650 nc         1 BZ6      -0.699000
     25 O02          1.4280     0.0000     0.0000 os         1 BZ6      -0.325900
     26 H1          -0.3610    -0.8770     0.5240 h1         1 BZ6       0.042700
     27 H2          -0.3610    -0.0150    -1.0210 h1         1 BZ6       0.042700
     28 H3          -0.3610     0.8920     0.4970 h1         1 BZ6       0.042700
     29 H4           4.0210    -0.0050     0.3710 ha         1 BZ6       0.144000
     30 H5           5.1440     0.0060     2.5630 ha         1 BZ6       0.142000
     31 H6           7.0590    -2.2320     5.7960 ha         1 BZ6       0.147000
     32 H7           8.9130    -3.2120     7.0930 ha         1 BZ6       0.138000
     33 H8           9.2950    -2.5100     9.4240 ha         1 BZ6       0.135000
     34 H9           7.8290    -0.8250    10.4650 ha         1 BZ6       0.138000
     35 H10          5.9740     0.1620     9.1760 ha         1 BZ6       0.147000
     36 H11          4.4530     0.9590     8.1090 h4         1 BZ6       0.175000
     37 H12          1.6140     1.3680     5.6400 h1         1 BZ6       0.065700
     38 H13          2.1950     1.9590     7.2030 h1         1 BZ6       0.065700
     39 H15          3.1560     5.2320     3.1850 h4         1 BZ6       0.039100
     40 H16          3.8710     4.0690     7.1670 h5         1 BZ6       0.058100
     41 H17          1.3210     0.0170     4.5120 ha         1 BZ6       0.142000
     42 H18          0.2070     0.0070     2.3160 ha         1 BZ6       0.144000
     43 H14          2.1240     2.8330     3.4890 h4         1 BZ6       0.175000
@<TRIPOS>BOND
     1     1    25 1
     2    25     2 1
     3    20     2 ar
     4    20    19 ar
     5     2     3 ar
     6    24    17 1
     7    24    18 2
     8    19     5 ar
     9    17    16 2
    10     3     4 ar
    11    18    23 1
    12     5     4 ar
    13     5     6 1
    14    16    23 1
    15    23    15 1
    16     6    21 2
    17     6    14 1
    18    21    22 1
    19    14    15 1
    20    14    13 2
    21    22     7 1
    22    22    13 1
    23    12     7 ar
    24    12    11 ar
    25     7     8 ar
    26    11    10 ar
    27     8     9 ar
    28    10     9 ar
    29     1    26 1
    30     1    27 1
    31     1    28 1
    32     3    29 1
    33     4    30 1
    34     8    31 1
    35     9    32 1
    36    10    33 1
    37    11    34 1
    38    12    35 1
    39    13    36 1
    40    15    37 1
    41    15    38 1
    42    16    43 1
    43    17    39 1
    44    18    40 1
    45    19    41 1
    46    20    42 1
@<TRIPOS>SUBSTRUCTURE
     1 BZ6         1 TEMP              0 ****  ****    0 ROOT
