@<TRIPOS>MOLECULE
molecule
   78    80     1     0     0
SMALL
bcc


@<TRIPOS>ATOM
      1 N            0.0000     0.0000     0.0000 ns         1 BZ7      -0.557900
      2 CA           1.4650     0.0000     0.0000 c3         1 BZ7       0.065700
      3 CAA         -6.1720    -2.7030    -1.4740 ca         1 BZ7      -0.128000
      4 CAB         -4.7930    -2.6990    -1.3730 ca         1 BZ7      -0.125000
      5 CAC         -4.1910    -2.6160    -0.1310 ca         1 BZ7      -0.086300
      6 CAD         -4.9680    -2.5380     1.0100 ca         1 BZ7      -0.125000
      7 CAE         -6.3470    -2.5430     0.9090 ca         1 BZ7      -0.128000
      8 CAF         -6.9490    -2.6260    -0.3330 ca         1 BZ7      -0.132000
      9 CAG         -2.6880    -2.6120    -0.0200 c3         1 BZ7      -0.021100
     10 CAH         -2.1770    -1.1720    -0.0810 c3         1 BZ7      -0.149400
     11 CAI         -0.6740    -1.1670     0.0290 c          1 BZ7       0.677100
     12 CAS          1.4600     2.1600    -4.4040 c3         1 BZ7       0.122400
     13 CAT          2.1910     0.9940    -5.0720 c3         1 BZ7      -0.100767
     14 CAU          1.8470     3.4680    -5.0970 c3         1 BZ7      -0.100767
     15 CAV         -0.0510     1.9490    -4.5210 c3         1 BZ7      -0.100767
     16 CAX          3.7810     0.0010     3.0490 c3         1 BZ7       0.094000
     17 CAY          5.3110     0.0000     3.0490 c3         1 BZ7       0.096000
     18 C            1.9680     0.0000     1.4210 c          1 BZ7       0.642100
     19 O            1.1790     0.0020     2.3430 o          1 BZ7      -0.591100
     20 NAN          3.2920     0.0000     1.6670 ns         1 BZ7      -0.588900
     21 NAZ          5.7990     0.0020     4.4300 ns         1 BZ7      -0.583900
     22 OAK         -0.0720    -2.2120     0.1450 o          1 BZ7      -0.607100
     23 CB           1.9760     1.2470    -0.7220 c3         1 BZ7      -0.173400
     24 CBA          7.1240     0.0010     4.6760 c          1 BZ7       0.677700
     25 CBC          7.6170     0.0020     6.0700 ca         1 BZ7      -0.145600
     26 CBD          6.7110     0.0040     7.1330 ca         1 BZ7      -0.107000
     27 CBE          7.1700     0.0050     8.4340 ca         1 BZ7      -0.134000
     28 CBF          8.5270     0.0030     8.6940 ca         1 BZ7      -0.098000
     29 CBG          9.4420     0.0020     7.6410 cp         1 BZ7      -0.041000
     30 CBH          8.9860    -0.0040     6.3270 ca         1 BZ7      -0.060000
     31 CBI         10.9000     0.0020     7.9230 cp         1 BZ7      -0.040000
     32 CBJ         11.3570     0.0030     9.2390 ca         1 BZ7      -0.117000
     33 CBK         12.7130     0.0040     9.4950 ca         1 BZ7      -0.126000
     34 CBL         13.6180     0.0010     8.4480 ca         1 BZ7      -0.124000
     35 CBM         13.1680     0.0000     7.1400 ca         1 BZ7      -0.126000
     36 CBN         11.8150    -0.0050     6.8730 ca         1 BZ7      -0.117000
     37 OBB          7.9140    -0.0010     3.7520 o          1 BZ7      -0.609100
     38 CG           1.5890     1.1800    -2.1780 c          1 BZ7       0.655100
     39 ND2          1.8350     2.2270    -2.9900 ns         1 BZ7      -0.580900
     40 OD1          1.0560     0.1830    -2.6170 o          1 BZ7      -0.596100
     41 H1          -0.5000     0.8670     0.0040 hn         1 BZ7       0.317500
     42 H2           1.8260    -0.8850    -0.5100 h1         1 BZ7       0.116700
     43 H4          -4.1840    -2.7600    -2.2670 ha         1 BZ7       0.132000
     44 H5          -4.4970    -2.4740     1.9830 ha         1 BZ7       0.132000
     45 H6          -6.9560    -2.4820     1.8030 ha         1 BZ7       0.128000
     46 H7          -8.0300    -2.6290    -0.4130 ha         1 BZ7       0.127000
     47 H8          -2.2640    -3.1810    -0.8390 hc         1 BZ7       0.066700
     48 H9          -2.3940    -3.0600     0.9210 hc         1 BZ7       0.066700
     49 H10         -2.4720    -0.7230    -1.0220 hc         1 BZ7       0.064200
     50 H11         -2.6010    -0.6030     0.7380 hc         1 BZ7       0.064200
     51 H12          2.2120     1.1480    -6.1440 hc         1 BZ7       0.045811
     52 H13          3.2050     0.9400    -4.6950 hc         1 BZ7       0.045811
     53 H14          1.6740     0.0690    -4.8500 hc         1 BZ7       0.045811
     54 H15          1.5670     3.4200    -6.1420 hc         1 BZ7       0.045811
     55 H16          2.9170     3.6170    -5.0160 hc         1 BZ7       0.045811
     56 H17          1.3310     4.2950    -4.6230 hc         1 BZ7       0.045811
     57 H18         -0.3870     2.2830    -5.4960 hc         1 BZ7       0.045811
     58 H19         -0.5560     2.5180    -3.7500 hc         1 BZ7       0.045811
     59 H20         -0.2790     0.8970    -4.4010 hc         1 BZ7       0.045811
     60 H21          3.4200     0.8860     3.5590 h1         1 BZ7       0.057700
     61 H22          3.4190    -0.8830     3.5600 h1         1 BZ7       0.057700
     62 H23          5.6720     0.8840     2.5380 h1         1 BZ7       0.056700
     63 H24          5.6720    -0.8850     2.5390 h1         1 BZ7       0.056700
     64 H25          3.9420    -0.0550     0.9070 hn         1 BZ7       0.315500
     65 H26          5.1480    -0.0250     5.1900 hn         1 BZ7       0.319500
     66 H27          1.5380     2.1300    -0.2720 hc         1 BZ7       0.068700
     67 H28          3.0550     1.2970    -0.6370 hc         1 BZ7       0.068700
     68 H29          5.6460     0.0050     6.9350 ha         1 BZ7       0.124000
     69 H30          6.4640     0.0060     9.2560 ha         1 BZ7       0.135000
     70 H31          8.8820     0.0050     9.7170 ha         1 BZ7       0.137000
     71 H32          9.6930    -0.0050     5.5060 ha         1 BZ7       0.161000
     72 H33         10.6500     0.0050    10.0600 ha         1 BZ7       0.135000
     73 H34         13.0700     0.0050    10.5170 ha         1 BZ7       0.132000
     74 H35         14.6810     0.0040     8.6540 ha         1 BZ7       0.130000
     75 H36         13.8810    -0.0040     6.3230 ha         1 BZ7       0.132000
     76 H37         11.4640    -0.0060     5.8480 ha         1 BZ7       0.135000
     77 H38          2.2780     3.0470    -2.6270 hn         1 BZ7       0.311500
     78 H3          -6.6430    -2.7680    -2.4470 ha         1 BZ7       0.128000
@<TRIPOS>BOND
     1     3     8 ar
     2     3     4 ar
     3     8     7 ar
     4     4     5 ar
     5     7     6 ar
     6     5     6 ar
     7     5     9 1
     8     9    10 1
     9    10    11 1
    10    22    11 2
    11    11     1 1
    12    13    12 1
    13     1     2 1
    14    40    38 2
    15     2    23 1
    16     2    18 1
    17    12    39 1
    18    12    15 1
    19    12    14 1
    20    38    39 1
    21    38    23 1
    22    20    18 1
    23    20    16 1
    24    18    19 2
    25    16    17 1
    26    17    21 1
    27    21    24 1
    28    24    37 2
    29    24    25 1
    30    34    35 ar
    31    34    33 ar
    32    35    36 ar
    33    30    25 ar
    34    30    29 ar
    35    33    32 ar
    36    36    31 ar
    37    25    26 ar
    38    32    31 ar
    39    31    29 1
    40    29    28 ar
    41    26    27 ar
    42    28    27 ar
    43     1    41 1
    44     2    42 1
    45     3    78 1
    46     4    43 1
    47     6    44 1
    48     7    45 1
    49     8    46 1
    50     9    47 1
    51     9    48 1
    52    10    49 1
    53    10    50 1
    54    13    51 1
    55    13    52 1
    56    13    53 1
    57    14    54 1
    58    14    55 1
    59    14    56 1
    60    15    57 1
    61    15    58 1
    62    15    59 1
    63    16    60 1
    64    16    61 1
    65    17    62 1
    66    17    63 1
    67    20    64 1
    68    21    65 1
    69    23    66 1
    70    23    67 1
    71    26    68 1
    72    27    69 1
    73    28    70 1
    74    30    71 1
    75    32    72 1
    76    33    73 1
    77    34    74 1
    78    35    75 1
    79    36    76 1
    80    39    77 1
@<TRIPOS>SUBSTRUCTURE
     1 BZ7         1 TEMP              0 ****  ****    0 ROOT
