@<TRIPOS>MOLECULE
molecule
   36    38     1     0     0
SMALL
bcc


@<TRIPOS>ATOM
      1 N1           0.0000     0.0000     0.0000 nc         1 BZ8      -0.180100
      2 N2           1.2730     0.0000     0.0000 nd         1 BZ8      -0.325000
      3 C3           1.9320     0.0000     1.1460 cd         1 BZ8       0.367800
      4 C4           1.0650    -0.0010     2.2340 cc         1 BZ8      -0.080400
      5 C6           3.4090    -0.0000     1.2590 ca         1 BZ8      -0.134500
      6 C7           1.3960    -0.0010     3.6730 ca         1 BZ8      -0.057000
      7 C16          2.7230    -0.1450     4.0860 ca         1 BZ8      -0.073500
      8 C15          3.0280    -0.1460     5.4300 ca         1 BZ8      -0.190000
      9 C14          2.0190    -0.0020     6.3730 ca         1 BZ8       0.159100
     10 C13          0.6990     0.1420     5.9680 ca         1 BZ8      -0.190000
     11 C12          0.3850     0.1490     4.6250 ca         1 BZ8      -0.073500
     12 C21          4.1430    -1.1210     0.8560 ca         1 BZ8       0.162100
     13 C22          5.5230    -1.1160     0.9630 ca         1 BZ8      -0.219000
     14 C23          6.1760    -0.0010     1.4680 ca         1 BZ8       0.147100
     15 C24          5.4490     1.1130     1.8680 ca         1 BZ8      -0.025600
     16 C25          4.0720     1.1190     1.7600 ca         1 BZ8      -0.070000
     17 O29          7.5310     0.0020     1.5720 oh         1 BZ8      -0.508100
     18 O30          3.5030    -2.2130     0.3620 oh         1 BZ8      -0.494100
     19 O33          2.3240    -0.0020     7.6980 os         1 BZ8      -0.326900
     20 S1          -0.5360    -0.0000     1.4710 ss         1 BZ8       0.175200
     21 C34          1.2380     0.1500     8.6140 c3         1 BZ8       0.134400
     22 Cl           6.2730     2.5040     2.5000 cl         1 BZ8      -0.083400
     23 CAA          1.7730     0.1250    10.0470 c3         1 BZ8      -0.093100
     24 H25          3.5070     1.9890     2.0730 ha         1 BZ8       0.163000
     25 H12         -0.6450     0.2610     4.3100 ha         1 BZ8       0.145000
     26 H16          3.5110    -0.2580     3.3510 ha         1 BZ8       0.145000
     27 H13         -0.0840     0.2560     6.7070 ha         1 BZ8       0.146000
     28 H15          4.0570    -0.2580     5.7510 ha         1 BZ8       0.146000
     29 H22          6.0930    -1.9830     0.6510 ha         1 BZ8       0.156000
     30 H30          3.9010    -2.4680    -0.4540 ho         1 BZ8       0.430000
     31 H29          7.9100     0.2560     0.7460 ho         1 BZ8       0.429000
     32 H341         0.5340    -0.6610     8.4770 h1         1 BZ8       0.035700
     33 H342         0.7410     1.0950     8.4310 h1         1 BZ8       0.035700
     34 HAA1         2.4770     0.9370    10.1840 hc         1 BZ8       0.049033
     35 HAA2         2.2700    -0.8190    10.2300 hc         1 BZ8       0.049033
     36 HAA3         0.9500     0.2410    10.7420 hc         1 BZ8       0.049033
@<TRIPOS>BOND
     1     1     2 2
     2     1    20 1
     3     2     3 1
     4     3     4 2
     5     3     5 1
     6     4     6 1
     7     4    20 1
     8     5    12 ar
     9     5    16 ar
    10     6    11 ar
    11     6     7 ar
    12    11    10 ar
    13    10     9 ar
    14     9     8 ar
    15     9    19 1
    16     8     7 ar
    17    12    13 ar
    18    12    18 1
    19    13    14 ar
    20    14    15 ar
    21    14    17 1
    22    15    16 ar
    23    15    22 1
    24    19    21 1
    25    21    23 1
    26    16    24 1
    27    11    25 1
    28     7    26 1
    29    10    27 1
    30     8    28 1
    31    13    29 1
    32    18    30 1
    33    17    31 1
    34    21    32 1
    35    21    33 1
    36    23    34 1
    37    23    35 1
    38    23    36 1
@<TRIPOS>SUBSTRUCTURE
     1 BZ8         1 TEMP              0 ****  ****    0 ROOT
