@<TRIPOS>MOLECULE
BZ8
   36    38     1     0     0
SMALL
bcc


@<TRIPOS>ATOM
      1 N1          0.0550   -0.3080   -0.0260 nc        1 BZ8     -0.134100
      2 N2          1.2860   -0.1980   -0.1060 nd        1 BZ8     -0.258000
      3 C3          1.9320   -0.1360    1.1590 cd        1 BZ8      0.333800
      4 C4          1.0260   -0.2200    2.2250 cc        1 BZ8     -0.065400
      5 C6          3.3780    0.0090    1.2350 ca        1 BZ8     -0.177500
      6 C7          1.3100   -0.2210    3.6370 ca        1 BZ8     -0.070000
      7 C16         2.4000   -0.9520    4.1450 ca        1 BZ8     -0.068500
      8 C15         2.6670   -0.9740    5.5060 ca        1 BZ8     -0.186000
      9 C14         1.8360   -0.2510    6.3860 ca        1 BZ8      0.147100
     10 C13         0.7490    0.4820    5.8950 ca        1 BZ8     -0.186000
     11 C12         0.4920    0.4900    4.5260 ca        1 BZ8     -0.068500
     12 C21         4.2340   -1.0120    0.7650 ca        1 BZ8      0.190100
     13 C22         5.6250   -0.8610    0.8010 ca        1 BZ8     -0.252000
     14 C23         6.1730    0.3240    1.3120 ca        1 BZ8      0.187100
     15 C24         5.3290    1.3470    1.7860 ca        1 BZ8     -0.111600
     16 C25         3.9430    1.1830    1.7380 ca        1 BZ8     -0.025000
     17 O29         7.5410    0.3940    1.3130 oh        1 BZ8     -0.487100
     18 O30         3.6460   -2.1610    0.3010 oh        1 BZ8     -0.477100
     19 O33         2.1900   -0.3390    7.7140 os        1 BZ8     -0.326900
     20 S1         -0.5280   -0.3630    1.5560 ss        1 BZ8      0.098200
     21 C34         1.3630    0.3850    8.6370 c3        1 BZ8      0.127400
     22 CL          5.9750    2.7920    2.4110 cl        1 BZ8     -0.089400
     23 CAA         1.9500    0.1310   10.0060 c3        1 BZ8     -0.101100
     24 H25         3.2830    1.9890    2.1000 ha        1 BZ8      0.160000
     25 H12        -0.3640    1.0660    4.1400 ha        1 BZ8      0.143500
     26 H16         3.0450   -1.5110    3.4480 ha        1 BZ8      0.143500
     27 H13         0.0950    1.0510    6.5700 ha        1 BZ8      0.148500
     28 H15         3.5150   -1.5450    5.9100 ha        1 BZ8      0.148500
     29 H22         6.2950   -1.6510    0.4330 ha        1 BZ8      0.160000
     30 H30         4.3410   -2.7270   -0.0700 ho        1 BZ8      0.427000
     31 H29         7.8050    1.2560    1.6760 ho        1 BZ8      0.435000
     32 H341        0.3100    0.0050    8.5690 h1        1 BZ8      0.039700
     33 H342        1.3880    1.4770    8.3800 h1        1 BZ8      0.039700
     34 HAA1        3.0060    0.4910   10.0520 hc        1 BZ8      0.050700
     35 HAA2        1.3430    0.6730   10.7690 hc        1 BZ8      0.050700
     36 HAA3        1.9420   -0.9610   10.2380 hc        1 BZ8      0.050700
@<TRIPOS>BOND
     1    1    2 2   
     2    1   20 1   
     3    2    3 1   
     4    3    4 2   
     5    3    5 1   
     6    4    6 1   
     7    4   20 1   
     8    5   12 ar  
     9    5   16 ar  
    10    6    7 ar  
    11    6   11 ar  
    12    7    8 ar  
    13    7   26 1   
    14    8    9 ar  
    15    8   28 1   
    16    9   10 ar  
    17    9   19 1   
    18   10   11 ar  
    19   10   27 1   
    20   11   25 1   
    21   12   13 ar  
    22   12   18 1   
    23   13   14 ar  
    24   13   29 1   
    25   14   15 ar  
    26   14   17 1   
    27   15   16 ar  
    28   15   22 1   
    29   16   24 1   
    30   17   31 1   
    31   18   30 1   
    32   19   21 1   
    33   21   23 1   
    34   21   32 1   
    35   21   33 1   
    36   23   34 1   
    37   23   35 1   
    38   23   36 1   
@<TRIPOS>SUBSTRUCTURE
     1 BZ8         1 TEMP              0 ****  ****    0 ROOT
