@<TRIPOS>MOLECULE
molecule
   59    64     1     0     0
SMALL
bcc


@<TRIPOS>ATOM
      1 N1           0.0000     0.0000     0.0000 na         1 BZ9      -0.293300
      2 C4           0.7620    -0.0000     2.0960 ca         1 BZ9       0.120400
      3 C5           0.6670     0.0000     3.4890 ca         1 BZ9      -0.086000
      4 C6          -0.5720     0.0000     4.0900 ca         1 BZ9      -0.137000
      5 C7          -1.7270    -0.0010     3.3220 ca         1 BZ9      -0.125000
      6 C8          -1.6500     0.0070     1.9440 ca         1 BZ9      -0.122000
      7 C10          5.7790    -0.0830    -1.9930 ca         1 BZ9      -0.008000
      8 C13          4.6710     0.5350    -4.4580 ca         1 BZ9      -0.126000
      9 C15          6.6060     0.0980    -3.1120 ca         1 BZ9      -0.102000
     10 C17          6.3200    -0.3990    -0.7300 ca         1 BZ9       0.069100
     11 C20          3.5450    -0.1310    -1.0090 ca         1 BZ9       0.171600
     12 C21          9.7910     0.6390    -0.0530 cp         1 BZ9      -0.275800
     13 C22         10.4540     1.8220     0.2780 ca         1 BZ9      -0.051000
     14 C24          8.3390     2.9320     0.2150 ca         1 BZ9       0.466200
     15 C26          8.4030     0.6700    -0.2370 ca         1 BZ9       0.671600
     16 C28         10.5450    -0.6250    -0.2200 cp         1 BZ9       0.566800
     17 C35         10.6210    -5.3010    -1.1830 c3         1 BZ9       0.238100
     18 C32         10.5840    -2.8850    -0.6850 ca         1 BZ9       0.945900
     19 N27          9.9130    -1.7540    -0.5350 nb         1 BZ9      -0.772000
     20 N31         11.8990    -2.9400    -0.5260 nb         1 BZ9      -0.803000
     21 C30         12.5940    -1.8560    -0.2180 ca         1 BZ9       0.500200
     22 C29         11.9330    -0.6530    -0.0520 ca         1 BZ9      -0.445600
     23 C23          9.7060     2.9810     0.4120 ca         1 BZ9      -0.292300
     24 N25          7.7340     1.8010    -0.0980 nb         1 BZ9      -0.736000
     25 C18          5.4900    -0.5710     0.3420 ca         1 BZ9      -0.038300
     26 C36          6.0770    -0.9080     1.6880 c3         1 BZ9      -0.049800
     27 C19          4.1110    -0.4390     0.2090 ca         1 BZ9      -0.168000
     28 C14          6.0510     0.4010    -4.3190 ca         1 BZ9      -0.130000
     29 C12          3.8390     0.3610    -3.3940 ca         1 BZ9      -0.127000
     30 C11          4.3760     0.0470    -2.1370 ca         1 BZ9      -0.058000
     31 C9           1.3670     0.0000     0.0000 cc         1 BZ9       0.664700
     32 N2           1.8110     0.0000     1.2320 nd         1 BZ9      -0.657100
     33 C3          -0.4110     0.0050     1.3230 ca         1 BZ9      -0.095200
     34 H5           1.5650     0.0010     4.0950 ha         1 BZ9       0.142000
     35 H6          -0.6460    -0.0060     5.1710 ha         1 BZ9       0.133000
     36 H7          -2.6960    -0.0010     3.8070 ha         1 BZ9       0.132000
     37 H8          -2.5560     0.0070     1.3490 ha         1 BZ9       0.125000
     38 H13          4.2540     0.7770    -5.4280 ha         1 BZ9       0.125000
     39 H15          7.6810    -0.0030    -3.0180 ha         1 BZ9       0.147000
     40 H22         11.5270     1.8340     0.4270 ha         1 BZ9       0.148000
     41 H24          7.7530     3.8370     0.3190 h4         1 BZ9       0.028100
     42 H35          9.9210    -6.0890    -1.4340 h1         1 BZ9       0.039367
     43 H35A        11.1290    -5.5510    -0.2600 h1         1 BZ9       0.039367
     44 H30         13.6690    -1.9120    -0.0930 h4         1 BZ9       0.025100
     45 H29         12.4790     0.2490     0.2000 ha         1 BZ9       0.139000
     46 H23         10.1880     3.9160     0.6680 ha         1 BZ9       0.143000
     47 H36          6.4170     0.0000     2.1710 hc         1 BZ9       0.050033
     48 H36A         6.9130    -1.5840     1.5590 hc         1 BZ9       0.050033
     49 H36B         5.3210    -1.3820     2.3030 hc         1 BZ9       0.050033
     50 H19          3.4740    -0.5800     1.0740 ha         1 BZ9       0.209000
     51 H14          6.6910     0.5450    -5.1810 ha         1 BZ9       0.128000
     52 H12          2.7680     0.4680    -3.5180 ha         1 BZ9       0.113000
     53 HN16         1.7400     0.0790    -2.0340 hn         1 BZ9       0.454800
     54 HN1         -0.5880     0.1300    -0.7990 hn         1 BZ9       0.298700
     55 H221        11.3530    -5.2030    -1.9750 h1         1 BZ9       0.039367
     56 H231         8.9050    -4.0100    -1.1500 hn         1 BZ9       0.461800
     57 N16          2.1590    -0.0000    -1.1290 nu         1 BZ9      -0.712600
     58 O33          7.6640    -0.5320    -0.5780 os         1 BZ9      -0.325400
     59 N34          9.8960    -4.0390    -1.0140 nu         1 BZ9      -0.898900
@<TRIPOS>BOND
     1     1    31 1
     2     1    54 1
     3     2    32 1
     4     3     2 ar
     5     3    34 1
     6     4     3 ar
     7     4    35 1
     8     5     4 ar
     9     5     6 ar
    10     5    36 1
    11     6    33 ar
    12     6    37 1
    13     7    10 ar
    14     8    28 ar
    15     8    29 ar
    16     8    38 1
    17     9     7 ar
    18     9    39 1
    19    10    58 1
    20    10    25 ar
    21    11    57 1
    22    11    27 ar
    23    12    13 ar
    24    12    15 ar
    25    13    23 ar
    26    13    40 1
    27    14    41 1
    28    15    24 ar
    29    16    12 1
    30    16    19 ar
    31    17    42 1
    32    17    43 1
    33    59    17 1
    34    18    59 1
    35    18    19 ar
    36    20    18 ar
    37    21    20 ar
    38    21    22 ar
    39    21    44 1
    40    22    16 ar
    41    22    45 1
    42    23    14 ar
    43    23    46 1
    44    24    14 ar
    45    58    15 1
    46    25    26 1
    47    26    47 1
    48    26    48 1
    49    26    49 1
    50    27    25 ar
    51    27    50 1
    52    28     9 ar
    53    28    51 1
    54    29    30 ar
    55    29    52 1
    56    30     7 ar
    57    30    11 ar
    58    57    53 1
    59    31    57 1
    60    32    31 2
    61    33     1 1
    62    33     2 ar
    63    17    55 1
    64    59    56 1
@<TRIPOS>SUBSTRUCTURE
     1 BZ9         1 TEMP              0 ****  ****    0 ROOT
