@<TRIPOS>MOLECULE
BZA
   37    40     1     0     0
SMALL
bcc


@<TRIPOS>ATOM
      1 C4C         0.0730   -0.0020    0.0750 c3        1 BZA     -0.073100
      2 C9C         1.5970    0.0080    0.0520 c3        1 BZA      0.106100
      3 O3          2.0930   -1.1880   -0.5380 oh        1 BZA     -0.609800
      4 C8B         2.1880    0.0520    1.4660 c3        1 BZA      0.155100
      5 O2          1.8330   -1.0890    2.2290 oh        1 BZA     -0.598800
      6 C3B         1.6730    1.2820    2.2310 c3        1 BZA      0.189400
      7 O1          2.6040    2.3200    1.9290 oh        1 BZA     -0.600800
      8 C3A         0.2630    1.6810    1.9050 ca        1 BZA     -0.114300
      9 C2A        -0.2960    2.7290    2.7030 ca        1 BZA     -0.128000
     10 C4A        -0.4910    1.0790    0.9270 ca        1 BZA     -0.028300
     11 C1A        -1.5760    3.1490    2.5110 ca        1 BZA     -0.113000
     12 C5A        -2.6970    0.8430   -0.2080 ca        1 BZA     -0.109000
     13 C4B        -1.8650    1.4710    0.7260 ca        1 BZA     -0.027000
     14 C6A        -4.8770    0.6130   -1.3530 ca        1 BZA     -0.119000
     15 C7A        -6.1670    1.0260   -1.5240 ca        1 BZA     -0.124000
     16 C8A        -6.6890    2.1020   -0.7480 ca        1 BZA     -0.125000
     17 C5B        -4.0240    1.2500   -0.3950 ca        1 BZA     -0.032000
     18 C9B        -4.5490    2.3240    0.3840 ca        1 BZA     -0.032000
     19 C11        -2.4040    2.5320    1.5190 ca        1 BZA     -0.032000
     20 C9A        -5.9070    2.7310    0.1770 ca        1 BZA     -0.117000
     21 C10        -3.7270    2.9430    1.3320 ca        1 BZA     -0.105000
     22 H4C1       -0.2770   -0.9960    0.4690 hc        1 BZA      0.064700
     23 H4C2       -0.2930    0.1000   -0.9820 hc        1 BZA      0.064700
     24 H9C         1.9730    0.9000   -0.5220 h1        1 BZA      0.060700
     25 H3          1.7310   -1.2330   -1.4300 ho        1 BZA      0.408000
     26 H8B         3.3120    0.1100    1.3880 h1        1 BZA      0.070700
     27 HO2         2.0500   -1.8580    1.6850 ho        1 BZA      0.422000
     28 H3B         1.7310    1.0570    3.3380 h1        1 BZA      0.069700
     29 H1          2.2070    3.1530    2.2110 ho        1 BZA      0.408000
     30 H2A         0.3350    3.1830    3.4840 ha        1 BZA      0.131000
     31 H1A        -2.0070    3.9610    3.1170 ha        1 BZA      0.135000
     32 H5A        -2.3210    0.0020   -0.8100 ha        1 BZA      0.134000
     33 H6A        -4.4630   -0.2170   -1.9460 ha        1 BZA      0.132000
     34 H7A        -6.8250    0.5400   -2.2590 ha        1 BZA      0.134000
     35 H8A        -7.7320    2.4110   -0.9100 ha        1 BZA      0.134000
     36 H9A        -6.2970    3.5620    0.7840 ha        1 BZA      0.134000
     37 H10        -4.1300    3.7660    1.9440 ha        1 BZA      0.136000
@<TRIPOS>BOND
     1    1    2 1   
     2    1   10 1   
     3    1   22 1   
     4    1   23 1   
     5    2    3 1   
     6    2    4 1   
     7    2   24 1   
     8    3   25 1   
     9    4    5 1   
    10    4    6 1   
    11    4   26 1   
    12    5   27 1   
    13    6    7 1   
    14    6    8 1   
    15    6   28 1   
    16    7   29 1   
    17    8    9 ar  
    18    8   10 ar  
    19    9   11 ar  
    20    9   30 1   
    21   10   13 ar  
    22   11   19 ar  
    23   11   31 1   
    24   12   13 ar  
    25   12   17 ar  
    26   12   32 1   
    27   13   19 ar  
    28   14   15 ar  
    29   14   17 ar  
    30   14   33 1   
    31   15   16 ar  
    32   15   34 1   
    33   16   20 ar  
    34   16   35 1   
    35   17   18 ar  
    36   18   20 ar  
    37   18   21 ar  
    38   19   21 ar  
    39   20   36 1   
    40   21   37 1   
@<TRIPOS>SUBSTRUCTURE
     1 BZA         1 TEMP              0 ****  ****    0 ROOT
