@<TRIPOS>MOLECULE
molecule
   37    40     1     0     0
SMALL
bcc


@<TRIPOS>ATOM
      1 C4C          0.0000     0.0000     0.0000 c3         1 BZA      -0.044100
      2 C9C          1.5260     0.0000     0.0000 c3         1 BZA       0.147100
      3 O3           2.0090    -1.1680    -0.6670 oh         1 BZA      -0.601800
      4 C8B          2.0050     0.0000     1.4570 c3         1 BZA       0.122100
      5 O2           1.3430    -1.0400     2.1800 oh         1 BZA      -0.585800
      6 C3B          1.6630     1.3530     2.0720 c3         1 BZA       0.178400
      7 O1           2.4840     2.3580     1.4780 oh         1 BZA      -0.598800
      8 C3A          0.2120     1.6960     1.8430 ca         1 BZA      -0.081300
      9 C2A         -0.3400     2.6970     2.6600 ca         1 BZA      -0.106000
     10 C4A         -0.5350     1.0870     0.8950 ca         1 BZA      -0.026300
     11 C1A         -1.6240     3.1060     2.5470 ca         1 BZA      -0.126000
     12 C5A         -2.6740     0.8620    -0.2610 ca         1 BZA      -0.103000
     13 C4B         -1.8880     1.4700     0.7170 ca         1 BZA      -0.036000
     14 C6A         -4.8270     0.6570    -1.3940 ca         1 BZA      -0.115000
     15 C7A         -6.1170     1.0610    -1.5190 ca         1 BZA      -0.127000
     16 C8A         -6.6560     2.0560    -0.7010 ca         1 BZA      -0.124000
     17 C5B         -4.0020     1.2530    -0.4150 ca         1 BZA      -0.036000
     18 C9B         -4.5680     2.2990     0.4410 ca         1 BZA      -0.031000
     19 C11         -2.4540     2.5150     1.5710 ca         1 BZA      -0.025000
     20 C9A         -5.9190     2.6690     0.2570 ca         1 BZA      -0.118000
     21 C10         -3.7820     2.9080     1.4170 ca         1 BZA      -0.108000
     22 H4C1        -0.3550     0.1650    -1.0100 hc         1 BZA       0.070700
     23 H4C2        -0.3550    -0.9600     0.3560 hc         1 BZA       0.070700
     24 H9C          1.8900     0.8890    -0.5020 h1         1 BZA       0.059700
     25 H3           2.5540    -0.9140    -1.3920 ho         1 BZA       0.401000
     26 H8B          3.0770    -0.1530     1.4880 h1         1 BZA       0.042700
     27 HO2          1.9770    -1.5310     2.6760 ho         1 BZA       0.402000
     28 H3B          1.8530     1.3150     3.1380 h1         1 BZA       0.044700
     29 H1           3.1370     2.6380     2.0980 ho         1 BZA       0.402000
     30 H2A          0.2880     3.1590     3.4120 ha         1 BZA       0.122000
     31 H1A         -2.0510     3.7650     3.2930 ha         1 BZA       0.134000
     32 H5A         -2.2940     0.0060    -0.8060 ha         1 BZA       0.142000
     33 H6A         -4.4330    -0.1170    -2.0410 ha         1 BZA       0.133000
     34 H7A         -6.7440     0.5980    -2.2710 ha         1 BZA       0.127000
     35 H8A         -7.6910     2.3460    -0.8370 ha         1 BZA       0.126000
     36 H9A         -6.3620     3.4380     0.8770 ha         1 BZA       0.132000
     37 H10         -4.1570     3.7710     1.9540 ha         1 BZA       0.137000
@<TRIPOS>BOND
     1     1     2 1
     2     1    10 1
     3     1    22 1
     4     1    23 1
     5     2     3 1
     6     2     4 1
     7     2    24 1
     8     3    25 1
     9     4     5 1
    10     4     6 1
    11     4    26 1
    12     5    27 1
    13     6     7 1
    14     6     8 1
    15     6    28 1
    16     7    29 1
    17     8     9 ar
    18     8    10 ar
    19     9    11 ar
    20     9    30 1
    21    10    13 ar
    22    11    19 ar
    23    11    31 1
    24    12    13 ar
    25    12    17 ar
    26    12    32 1
    27    13    19 ar
    28    14    15 ar
    29    14    17 ar
    30    14    33 1
    31    15    16 ar
    32    15    34 1
    33    16    20 ar
    34    16    35 1
    35    17    18 ar
    36    18    20 ar
    37    18    21 ar
    38    19    21 ar
    39    20    36 1
    40    21    37 1
@<TRIPOS>SUBSTRUCTURE
     1 BZA         1 TEMP              0 ****  ****    0 ROOT
