@<TRIPOS>MOLECULE
molecule
   34    36     1     0     0
SMALL
bcc


@<TRIPOS>ATOM
      1 C1           0.0000     0.0000     0.0000 ca         1 BZC       0.181400
      2 N2           1.3440     0.0000     0.0000 nc         1 BZC      -0.600100
      3 C3           1.7890     0.0000     1.2330 cd         1 BZC       0.556400
      4 N4           0.7340     0.0100     2.1040 na         1 BZC      -0.247300
      5 C5          -0.4180     0.0110     1.3420 ca         1 BZC      -0.106200
      6 C7          -1.7710     0.0210     1.6470 ca         1 BZC      -0.032000
      7 C4          -0.9700    -0.0010    -1.0250 ca         1 BZC      -0.179600
      8 C19          3.2140    -0.0050     1.6250 ca         1 BZC      -0.114900
      9 C2          -2.3210     0.0080    -0.6910 ca         1 BZC      -0.100000
     10 C6          -2.7120     0.0200     0.6350 ca         1 BZC      -0.131000
     11 C8          -0.5560    -0.0120    -2.4400 c          1 BZC       0.493700
     12 N1          -1.4870    -0.0140    -3.4140 nz         1 BZC      -0.678400
     13 O1           0.6260    -0.0210    -2.7270 o          1 BZC      -0.388100
     14 C11          4.1380     0.7640     0.9170 ca         1 BZC      -0.102000
     15 C12          3.6420    -0.7750     2.7070 ca         1 BZC      -0.144000
     16 C13          5.4720     0.7490     1.2850 ca         1 BZC       0.124100
     17 O2           6.3750     1.4930     0.5940 os         1 BZC      -0.287900
     18 C15          5.8870    -0.0190     2.3640 ca         1 BZC      -0.191000
     19 C17          4.9730    -0.7780     3.0700 ca         1 BZC      -0.085000
     20 C18          7.6460     1.2760     1.2100 c3         1 BZC       0.100700
     21 HN4          0.7870     0.0130     3.1030 hn         1 BZC       0.328700
     22 H7          -2.0910     0.0300     2.6820 ha         1 BZC       0.157000
     23 H2          -3.0700     0.0070    -1.4730 ha         1 BZC       0.110000
     24 H6          -3.7660     0.0260     0.8830 ha         1 BZC       0.162000
     25 HN11        -2.0620    -0.8280    -3.3250 hn         1 BZC       0.472800
     26 HN12        -2.0540     0.8060    -3.3360 hn         1 BZC       0.472800
     27 H11          3.7990     1.4310     0.1340 ha         1 BZC       0.162000
     28 H12          2.9280    -1.3710     3.2630 ha         1 BZC       0.131000
     29 H15          6.9310    -0.0270     2.6510 ha         1 BZC       0.158000
     30 H17          5.3030    -1.3760     3.9110 ha         1 BZC       0.148000
     31 H181         7.8970     0.2230     1.1590 h1         1 BZC       0.051700
     32 H182         7.6030     1.5880     2.2460 h1         1 BZC       0.051700
     33 H183         8.4020     1.8520     0.6900 h1         1 BZC       0.051700
     34 H13         -1.0340    -0.0190    -4.3070 hn         1 BZC       0.472800
@<TRIPOS>BOND
     1     1     2 1
     2     1     5 ar
     3     1     7 ar
     4     2     3 2
     5     3     4 1
     6     3     8 1
     7     4     5 1
     8     4    21 1
     9     5     6 ar
    10     6    10 ar
    11     6    22 1
    12     7     9 ar
    13     7    11 1
    14     8    14 ar
    15     8    15 ar
    16     9    10 ar
    17     9    23 1
    18    10    24 1
    19    11    12 1
    20    11    13 2
    21    12    25 1
    22    12    26 1
    23    14    16 ar
    24    14    27 1
    25    15    19 ar
    26    15    28 1
    27    16    17 1
    28    16    18 ar
    29    17    20 1
    30    18    19 ar
    31    18    29 1
    32    19    30 1
    33    20    31 1
    34    20    32 1
    35    20    33 1
    36    34    12 1
@<TRIPOS>SUBSTRUCTURE
     1 BZC         1 TEMP              0 ****  ****    0 ROOT
