@<TRIPOS>MOLECULE
molecule
   41    42     1     0     0
SMALL
bcc


@<TRIPOS>ATOM
      1 O5           0.0000     0.0000     0.0000 os         1 BZD      -0.392600
      2 C1           1.4250     0.0000     0.0000 c3         1 BZD       0.323500
      3 C2           1.9440     0.0000     1.4400 c3         1 BZD       0.094100
      4 O2           3.3720     0.0290     1.4330 oh         1 BZD      -0.591800
      5 C3           1.4560    -1.2700     2.1460 c3         1 BZD       0.110100
      6 O3           1.8060    -1.2130     3.5300 oh         1 BZD      -0.608800
      7 C4          -0.0670    -1.3570     2.0010 c3         1 BZD       0.103100
      8 O4          -0.5260    -2.6050     2.5230 oh         1 BZD      -0.599800
      9 C5          -0.4320    -1.2560     0.5180 c3         1 BZD       0.141100
     10 C6          -1.9500    -1.3780     0.3590 c3         1 BZD       0.152400
     11 O6          -2.2920    -1.2870    -1.0250 oh         1 BZD      -0.590800
     12 N1           1.9120     1.1960    -0.6930 ns         1 BZD      -0.581900
     13 C7           2.1360     1.1620    -2.0200 c          1 BZD       0.780100
     14 O7           1.9350     0.1380    -2.6440 o          1 BZD      -0.572100
     15 N2           2.5850     2.2610    -2.6570 ns         1 BZD      -0.589500
     16 C8           2.8090     2.2280    -3.9840 c          1 BZD       0.674700
     17 O8           2.6070     1.2040    -4.6080 o          1 BZD      -0.518100
     18 C9           3.3010     3.4340    -4.6820 ca         1 BZD      -0.149600
     19 C10          3.5340     3.4020    -6.0580 ca         1 BZD      -0.085000
     20 C11          3.9930     4.5310    -6.7040 ca         1 BZD      -0.137000
     21 C12          4.2220     5.6930    -5.9900 ca         1 BZD      -0.103000
     22 C13          3.9940     5.7320    -4.6270 ca         1 BZD      -0.137000
     23 C14          3.5290     4.6120    -3.9700 ca         1 BZD      -0.085000
     24 H1           1.7830    -0.8870    -0.5090 h2         1 BZD       0.096700
     25 H2           1.5620     0.8700     1.9600 h1         1 BZD       0.052700
     26 HO2          3.6780     0.6250     2.0960 ho         1 BZD       0.411000
     27 H3           1.9140    -2.1370     1.6870 h1         1 BZD       0.068700
     28 HO3          2.3660    -1.9410     3.7430 ho         1 BZD       0.416000
     29 H4          -0.5290    -0.5410     2.5420 h1         1 BZD       0.056700
     30 HO4         -0.8910    -2.4710     3.3820 ho         1 BZD       0.413000
     31 H5           0.0570    -2.0550    -0.0260 h1         1 BZD       0.072700
     32 H61         -2.4350    -0.5780     0.9050 h1         1 BZD       0.033200
     33 H62         -2.2780    -2.3330     0.7500 h1         1 BZD       0.033200
     34 HO6         -3.2150    -1.4460    -1.1310 ho         1 BZD       0.402000
     35 HN1          2.0600     2.0440    -0.1820 hn         1 BZD       0.307500
     36 HN2          2.7520     3.1030    -2.1420 hn         1 BZD       0.313500
     37 H101         3.3550     2.4910    -6.6180 ha         1 BZD       0.140000
     38 H111         4.1740     4.5070    -7.7720 ha         1 BZD       0.136000
     39 H121         4.5850     6.5770    -6.5010 ha         1 BZD       0.133000
     40 H131         4.1730     6.6470    -4.0750 ha         1 BZD       0.136000
     41 H141         3.3500     4.6440    -2.9020 ha         1 BZD       0.140000
@<TRIPOS>BOND
     1     1     2 1
     2     1     9 1
     3     2     3 1
     4     2    12 1
     5     2    24 1
     6     3     4 1
     7     3     5 1
     8     3    25 1
     9     4    26 1
    10     5     6 1
    11     5     7 1
    12     5    27 1
    13     6    28 1
    14     7     8 1
    15     7     9 1
    16     7    29 1
    17     8    30 1
    18     9    10 1
    19     9    31 1
    20    10    11 1
    21    10    32 1
    22    10    33 1
    23    11    34 1
    24    12    13 1
    25    12    35 1
    26    13    14 2
    27    13    15 1
    28    15    16 1
    29    15    36 1
    30    16    17 2
    31    16    18 1
    32    18    19 ar
    33    18    23 ar
    34    19    20 ar
    35    19    37 1
    36    20    21 ar
    37    20    38 1
    38    21    22 ar
    39    21    39 1
    40    22    23 ar
    41    22    40 1
    42    23    41 1
@<TRIPOS>SUBSTRUCTURE
     1 BZD         1 TEMP              0 ****  ****    0 ROOT
