@<TRIPOS>MOLECULE
BZE
   23    24     1     0     0
SMALL
bcc


@<TRIPOS>ATOM
      1 N13          0.0000     0.0000     0.0000 nv         1 BZE      -0.636500
      2 C8           1.3800     0.0000     0.0000 ca         1 BZE       0.757400
      3 N11          2.0450     0.0000     1.1510 nb         1 BZE      -0.693000
      4 C7           3.3730     0.0000     1.1510 ca         1 BZE       0.757400
      5 N12          4.0630    -0.0010     2.3460 nv         1 BZE      -0.636500
      6 N3           4.0390     0.0010    -0.0000 nb         1 BZE      -0.678500
      7 N4           2.0440    -0.0040    -1.1520 nb         1 BZE      -0.678500
      8 C1           3.3740     0.0010    -1.1520 cp         1 BZE       0.715500
      9 C2           4.1160    -0.0030    -2.4360 cp         1 BZE      -0.177500
     10 C6           3.4210    -0.0070    -3.6450 ca         1 BZE      -0.054000
     11 C10          4.1170    -0.0120    -4.8360 ca         1 BZE      -0.119000
     12 C14          5.5000    -0.0120    -4.8340 ca         1 BZE      -0.078000
     13 C9           6.1940    -0.0080    -3.6370 ca         1 BZE      -0.119000
     14 C5           5.5100     0.0020    -2.4390 ca         1 BZE      -0.054000
     15 H1          -0.5000    -0.8670     0.0100 hn         1 BZE       0.284300
     16 H2          -0.5000     0.8670     0.0060 hn         1 BZE       0.284300
     17 H3           4.3070     0.8650     2.7840 hn         1 BZE       0.284300
     18 H4           4.3060    -0.8680     2.7830 hn         1 BZE       0.284300
     19 H5           2.3380    -0.0070    -3.6490 ha         1 BZE       0.124000
     20 H6           3.5790    -0.0160    -5.7760 ha         1 BZE       0.105000
     21 H7           6.0420    -0.0180    -5.7720 ha         1 BZE       0.101000
     22 H8           7.2770    -0.0060    -3.6410 ha         1 BZE       0.105000
     23 H9           6.0550     0.0050    -1.5020 ha         1 BZE       0.124000
@<TRIPOS>BOND
     1     1     2 1   
     2     1    15 1   
     3     1    16 1   
     4     2     3 ar  
     5     2     7 ar  
     6     3     4 ar  
     7     4     5 1   
     8     4     6 ar  
     9     5    17 1   
    10     5    18 1   
    11     6     8 ar  
    12     7     8 ar  
    13     8     9 1   
    14     9    10 ar  
    15     9    14 ar  
    16    10    11 ar  
    17    10    19 1   
    18    11    12 ar  
    19    11    20 1   
    20    12    13 ar  
    21    12    21 1   
    22    13    14 ar  
    23    13    22 1   
    24    14    23 1   
@<TRIPOS>SUBSTRUCTURE
     1 BZE         1 TEMP              0 ****  ****    0 ROOT
