@<TRIPOS>MOLECULE
molecule
   32    33     1     0     0
SMALL
bcc


@<TRIPOS>ATOM
      1 C8           0.0000     0.0000     0.0000 ca         1 BZH      -0.185000
      2 C9           1.3950     0.0000     0.0000 ca         1 BZH      -0.044200
      3 N1           2.3180     0.0000     1.0140 na         1 BZH      -0.285300
      4 C2           3.5620    -0.0000     0.4480 cc         1 BZH       0.615700
      5 N10          4.6380     0.0020     1.2640 nv         1 BZH      -1.011800
      6 N3           3.5030    -0.0000    -0.8660 nd         1 BZH      -0.585100
      7 C4           2.1590     0.0000    -1.1630 ca         1 BZH       0.033400
      8 C5           1.5100     0.0000    -2.4090 ca         1 BZH      -0.050000
      9 C6           0.1100     0.0010    -2.4330 ca         1 BZH      -0.204000
     10 C7          -0.6290     0.0010    -1.2480 ca         1 BZH       0.094600
     11 N11         -2.0250     0.0000    -1.3110 ns         1 BZH      -0.492100
     12 C12         -2.8940     0.0040    -0.2230 c          1 BZH       0.675100
     13 O19         -2.6060     0.0300     0.9690 o          1 BZH      -0.566100
     14 C13         -4.3400     0.0010    -0.7020 c3         1 BZH      -0.170400
     15 C14         -5.3650     0.0060     0.4310 c3         1 BZH      -0.061400
     16 C15         -6.7990     0.0890    -0.0860 c3         1 BZH      -0.176400
     17 C16         -7.7740     0.1780     1.0600 c          1 BZH       0.893600
     18 O18         -9.0570     0.3250     0.6410 o          1 BZH      -0.852300
     19 O17         -7.4540     0.1130     2.2400 o          1 BZH      -0.852300
     20 H8          -0.5680    -0.0000     0.9220 ha         1 BZH       0.186000
     21 HN1          2.1170     0.0680     1.9930 hn         1 BZH       0.300700
     22 H101         5.0250    -0.8640     1.5840 hn         1 BZH       0.438800
     23 H102         5.0680     0.8680     1.5230 hn         1 BZH       0.438800
     24 H5           2.0800     0.0010    -3.3300 ha         1 BZH       0.138000
     25 H6          -0.4070     0.0010    -3.3850 ha         1 BZH       0.128000
     26 HN11        -2.4390    -0.0020    -2.2220 hn         1 BZH       0.320500
     27 H131        -4.5010    -0.8820    -1.3090 hc         1 BZH       0.050200
     28 H132        -4.5010     0.8780    -1.3170 hc         1 BZH       0.050200
     29 H141        -5.1740     0.8560     1.0730 hc         1 BZH       0.057700
     30 H142        -5.2530    -0.9040     1.0090 hc         1 BZH       0.057700
     31 H151        -7.0190    -0.7950    -0.6730 hc         1 BZH       0.029200
     32 H152        -6.9030     0.9670    -0.7110 hc         1 BZH       0.029200
@<TRIPOS>BOND
     1     1    10 ar
     2     1     2 ar
     3     1    20 1
     4     2     3 1
     5     2     7 ar
     6     3     4 1
     7     3    21 1
     8     4     5 1
     9     4     6 2
    10     5    22 1
    11     5    23 1
    12     6     7 1
    13     7     8 ar
    14     8     9 ar
    15     8    24 1
    16     9    10 ar
    17     9    25 1
    18    10    11 1
    19    11    12 1
    20    11    26 1
    21    12    14 1
    22    12    13 2
    23    14    15 1
    24    14    27 1
    25    14    28 1
    26    15    16 1
    27    15    29 1
    28    15    30 1
    29    16    17 1
    30    16    31 1
    31    16    32 1
    32    17    19 1
    33    17    18 1
@<TRIPOS>SUBSTRUCTURE
     1 BZH         1 TEMP              0 ****  ****    0 ROOT
