@<TRIPOS>MOLECULE
BZI
   15    16     1     0     0
SMALL
bcc


@<TRIPOS>ATOM
      1 N1         -0.0230    0.0010   -0.0210 na        1 BZI     -0.291300
      2 C2          1.3850    0.0000   -0.0010 cc        1 BZI      0.417700
      3 N3          1.9010    0.0010    1.2370 nd        1 BZI     -0.565100
      4 C3A         0.7880    0.0020    2.1060 ca        1 BZI      0.063400
      5 C4          0.7030    0.0020    3.5040 ca        1 BZI     -0.067000
      6 C5         -0.5560    0.0030    4.0850 ca        1 BZI     -0.154000
      7 C6         -1.7310    0.0030    3.3120 ca        1 BZI     -0.112000
      8 C7         -1.6940    0.0030    1.9250 ca        1 BZI     -0.136000
      9 C7A        -0.4340    0.0020    1.3170 ca        1 BZI     -0.075200
     10 HN1        -0.6070    0.0010   -0.8110 hn        1 BZI      0.305700
     11 H2          1.9710   -0.0010   -0.9280 h5        1 BZI      0.067800
     12 H4          1.6160    0.0020    4.1160 ha        1 BZI      0.148000
     13 H5         -0.6440    0.0040    5.1820 ha        1 BZI      0.133000
     14 H6         -2.7050    0.0040    3.8240 ha        1 BZI      0.132000
     15 H7         -2.6160    0.0030    1.3290 ha        1 BZI      0.134000
@<TRIPOS>BOND
     1    1    2 1   
     2    1    9 1   
     3    1   10 1   
     4    2    3 2   
     5    2   11 1   
     6    3    4 1   
     7    4    5 ar  
     8    4    9 ar  
     9    5    6 ar  
    10    5   12 1   
    11    6    7 ar  
    12    6   13 1   
    13    7    8 ar  
    14    7   14 1   
    15    8    9 ar  
    16    8   15 1   
@<TRIPOS>SUBSTRUCTURE
     1 BZI         1 TEMP              0 ****  ****    0 ROOT
