@<TRIPOS>MOLECULE
molecule
   15    16     1     0     0
SMALL
bcc


@<TRIPOS>ATOM
      1 N1           0.0000     0.0000     0.0000 na         1 BZI      -0.270300
      2 C2           1.3600     0.0000     0.0000 cc         1 BZI       0.425700
      3 N3           1.8070     0.0000     1.2210 nd         1 BZI      -0.602100
      4 C3A          0.7630     0.0010     2.0890 ca         1 BZI       0.090400
      5 C4           0.6700     0.0010     3.4820 ca         1 BZI      -0.067000
      6 C5          -0.5580     0.0030     4.0820 ca         1 BZI      -0.147000
      7 C6          -1.7170     0.0030     3.3210 ca         1 BZI      -0.112000
      8 C7          -1.6490     0.0020     1.9440 ca         1 BZI      -0.130000
      9 C7A         -0.4100     0.0070     1.3180 ca         1 BZI      -0.094200
     10 HN1         -0.5930     0.0000    -0.8060 hn         1 BZI       0.301700
     11 H2           1.9800    -0.0000    -0.8880 h5         1 BZI       0.072800
     12 H4           1.5690     0.0010     4.0860 ha         1 BZI       0.142000
     13 H5          -0.6270     0.0040     5.1640 ha         1 BZI       0.133000
     14 H6          -2.6830     0.0040     3.8120 ha         1 BZI       0.132000
     15 H7          -2.5570     0.0020     1.3540 ha         1 BZI       0.126000
@<TRIPOS>BOND
     1     1     2 1
     2     1     9 1
     3     1    10 1
     4     2     3 2
     5     2    11 1
     6     3     4 1
     7     4     5 ar
     8     4     9 ar
     9     5     6 ar
    10     5    12 1
    11     6     7 ar
    12     6    13 1
    13     7     8 ar
    14     7    14 1
    15     8     9 ar
    16     8    15 1
@<TRIPOS>SUBSTRUCTURE
     1 BZI         1 TEMP              0 ****  ****    0 ROOT
