@<TRIPOS>MOLECULE
molecule
   21    22     1     0     0
SMALL
bcc


@<TRIPOS>ATOM
      1 C10          0.0000     0.0000     0.0000 c          1 BZJ       0.880200
      2 O1           1.3470     0.0000     0.0000 o          1 BZJ      -0.826300
      3 O           -0.6080     0.0000     1.0520 o          1 BZJ      -0.826300
      4 C6          -0.7370     0.0060    -1.2770 ca         1 BZJ      -0.115600
      5 C7          -0.0410     0.0060    -2.4750 ca         1 BZJ      -0.081000
      6 C8          -0.7480     0.0120    -3.6850 ca         1 BZJ      -0.064000
      7 C3          -2.1670     0.0180    -3.6690 ca         1 BZJ      -0.018000
      8 C4          -2.8490     0.0170    -2.4410 ca         1 BZJ      -0.239000
      9 C5          -2.1490     0.0070    -1.2710 ca         1 BZJ       0.166100
     10 O2          -2.8160    -0.0000    -0.0900 oh         1 BZJ      -0.473100
     11 C2          -2.8670     0.0240    -4.8880 ca         1 BZJ      -0.128000
     12 C1          -2.1800     0.0250    -6.0610 ca         1 BZJ      -0.144000
     13 C           -0.7860     0.0180    -6.0780 ca         1 BZJ      -0.164000
     14 C9          -0.0720     0.0120    -4.9190 ca         1 BZJ      -0.101000
     15 H2           1.0360     0.1290    -2.4750 ha         1 BZJ       0.165000
     16 H3          -3.9320     0.0170    -2.4240 ha         1 BZJ       0.116000
     17 H4          -3.4070    -0.7340    -0.0660 ho         1 BZJ       0.398000
     18 H5          -3.9510     0.0290    -4.8920 ha         1 BZJ       0.115000
     19 H6          -2.7250     0.0290    -6.9980 ha         1 BZJ       0.106000
     20 H7          -0.2630     0.0190    -7.0270 ha         1 BZJ       0.108000
     21 H8           1.0110     0.0070    -4.9470 ha         1 BZJ       0.126000
@<TRIPOS>BOND
     1    14    13 ar
     2    14     6 ar
     3     3     1 1
     4    13    12 ar
     5     5     6 ar
     6     5     4 ar
     7     6     7 ar
     8     1     4 1
     9     1     2 1
    10    12    11 ar
    11     4     9 ar
    12     7    11 ar
    13     7     8 ar
    14     9     8 ar
    15     9    10 1
    16     5    15 1
    17     8    16 1
    18    10    17 1
    19    11    18 1
    20    12    19 1
    21    13    20 1
    22    14    21 1
@<TRIPOS>SUBSTRUCTURE
     1 BZJ         1 TEMP              0 ****  ****    0 ROOT
