@<TRIPOS>MOLECULE
BZM
   28    29     1     0     0
SMALL
bcc


@<TRIPOS>ATOM
      1 C8          0.0120   -0.0010    0.0350 c3        1 BZM      0.186700
      2 O8          1.4540    0.0010    0.0130 os        1 BZM     -0.434900
      3 C7          2.0740    0.0040    1.2340 c         1 BZM      0.646700
      4 O7          1.3620    0.0040    2.2430 o         1 BZM     -0.548000
      5 C6          3.5420    0.0070    1.1640 ca        1 BZM     -0.135600
      6 C1          4.2680    0.0110    2.3640 ca        1 BZM     -0.071000
      7 C5          4.2150    0.0040   -0.0640 ca        1 BZM     -0.071000
      8 C2          5.6600    0.0140    2.3290 ca        1 BZM     -0.148000
      9 C4          5.6080    0.0070   -0.0890 ca        1 BZM     -0.148000
     10 C3          6.3300    0.0120    1.1050 ca        1 BZM     -0.097000
     11 C9         -0.4440   -0.0020   -1.3850 ca        1 BZM     -0.096300
     12 C14        -0.6690   -1.2110   -2.0510 ca        1 BZM     -0.106000
     13 C10        -0.6710    1.2080   -2.0500 ca        1 BZM     -0.106000
     14 C13        -1.1260   -1.2100   -3.3680 ca        1 BZM     -0.135000
     15 C11        -1.1280    1.2060   -3.3680 ca        1 BZM     -0.135000
     16 C12        -1.3570   -0.0020   -4.0270 ca        1 BZM     -0.119000
     17 H82        -0.3340   -0.9170    0.5840 h1        1 BZM      0.059700
     18 H81        -0.3370    0.9130    0.5850 h1        1 BZM      0.059700
     19 H1          3.7260    0.0130    3.3240 ha        1 BZM      0.157000
     20 H5          3.6370    0.0010   -1.0020 ha        1 BZM      0.157000
     21 H2          6.2310    0.0180    3.2700 ha        1 BZM      0.139000
     22 H4          6.1380    0.0050   -1.0530 ha        1 BZM      0.139000
     23 H3          7.4310    0.0140    1.0820 ha        1 BZM      0.136000
     24 H14        -0.4830   -2.1640   -1.5320 ha        1 BZM      0.136000
     25 H10        -0.4860    2.1600   -1.5320 ha        1 BZM      0.136000
     26 H13        -1.3040   -2.1630   -3.8870 ha        1 BZM      0.133000
     27 H11        -1.3070    2.1590   -3.8870 ha        1 BZM      0.133000
     28 H12        -1.7180   -0.0020   -5.0660 ha        1 BZM      0.132000
@<TRIPOS>BOND
     1    1    2 1   
     2    1   11 1   
     3    1   17 1   
     4    1   18 1   
     5    2    3 1   
     6    3    4 2   
     7    3    5 1   
     8    5    6 ar  
     9    5    7 ar  
    10    6    8 ar  
    11    6   19 1   
    12    7    9 ar  
    13    7   20 1   
    14    8   10 ar  
    15    8   21 1   
    16    9   10 ar  
    17    9   22 1   
    18   10   23 1   
    19   11   12 ar  
    20   11   13 ar  
    21   12   14 ar  
    22   12   24 1   
    23   13   15 ar  
    24   13   25 1   
    25   14   16 ar  
    26   14   26 1   
    27   15   16 ar  
    28   15   27 1   
    29   16   28 1   
@<TRIPOS>SUBSTRUCTURE
     1 BZM         1 TEMP              0 ****  ****    0 ROOT
