@<TRIPOS>MOLECULE
molecule
   28    29     1     0     0
SMALL
bcc


@<TRIPOS>ATOM
      1 C8           0.0000     0.0000     0.0000 c3         1 BZM       0.205700
      2 O8           1.4520     0.0000     0.0000 os         1 BZM      -0.434900
      3 C7           2.1240     0.0000     1.1660 c          1 BZM       0.653700
      4 O7           1.5160     0.0000     2.2180 o          1 BZM      -0.555000
      5 C6           3.6010     0.0050     1.1680 ca         1 BZM      -0.132600
      6 C1           4.3020     0.0100     2.3750 ca         1 BZM      -0.072000
      7 C5           4.3020    -0.0020    -0.0390 ca         1 BZM      -0.072000
      8 C2           5.6810     0.0150     2.3700 ca         1 BZM      -0.146000
      9 C4           5.6820     0.0090    -0.0310 ca         1 BZM      -0.146000
     10 C3           6.3700     0.0150     1.1700 ca         1 BZM      -0.098000
     11 C9          -0.5020    -0.0010    -1.4220 ca         1 BZM      -0.100300
     12 C14         -0.7320    -1.1980    -2.0730 ca         1 BZM      -0.103000
     13 C10         -0.7370     1.1960    -2.0720 ca         1 BZM      -0.103000
     14 C13         -1.1930    -1.1980    -3.3760 ca         1 BZM      -0.133000
     15 C11         -1.1930     1.1960    -3.3760 ca         1 BZM      -0.133000
     16 C12         -1.4220    -0.0020    -4.0280 ca         1 BZM      -0.117000
     17 H82         -0.3610    -0.8840     0.5110 h1         1 BZM       0.054700
     18 H81         -0.3610     0.8850     0.5100 h1         1 BZM       0.054700
     19 H1           3.7630     0.0100     3.3150 ha         1 BZM       0.153000
     20 H5           3.7650    -0.0070    -0.9790 ha         1 BZM       0.153000
     21 H2           6.2250     0.0190     3.3060 ha         1 BZM       0.136500
     22 H4           6.2280     0.0060    -0.9670 ha         1 BZM       0.136500
     23 H3           7.4530     0.0210     1.1710 ha         1 BZM       0.132000
     24 H14         -0.5530    -2.1360    -1.5620 ha         1 BZM       0.134000
     25 H10         -0.5570     2.1340    -1.5610 ha         1 BZM       0.134000
     26 H13         -1.3730    -2.1370    -3.8860 ha         1 BZM       0.132000
     27 H11         -1.3750     2.1340    -3.8870 ha         1 BZM       0.132000
     28 H12         -1.7820    -0.0020    -5.0500 ha         1 BZM       0.131000
@<TRIPOS>BOND
     1     1     2 1
     2     1    11 1
     3     1    17 1
     4     1    18 1
     5     2     3 1
     6     3     4 2
     7     3     5 1
     8     5     6 ar
     9     5     7 ar
    10     6     8 ar
    11     6    19 1
    12     7     9 ar
    13     7    20 1
    14     8    10 ar
    15     8    21 1
    16     9    10 ar
    17     9    22 1
    18    10    23 1
    19    11    12 ar
    20    11    13 ar
    21    12    14 ar
    22    12    24 1
    23    13    15 ar
    24    13    25 1
    25    14    16 ar
    26    14    26 1
    27    15    16 ar
    28    15    27 1
    29    16    28 1
@<TRIPOS>SUBSTRUCTURE
     1 BZM         1 TEMP              0 ****  ****    0 ROOT
