@<TRIPOS>MOLECULE
BZN
   61    63     1     0     0
SMALL
bcc


@<TRIPOS>ATOM
      1 C2           0.0000     0.0000     0.0000 c3         1 BZN       0.102800
      2 C3           1.5450     0.0000     0.0000 c3         1 BZN      -0.075700
      3 C4           1.9450     0.0000     1.4890 c3         1 BZN      -0.053700
      4 C5           0.6100    -0.0010     2.2650 c3         1 BZN       0.147800
      5 C6           2.7520     1.2550     1.8230 c3         1 BZN       0.215400
      6 N1          -0.3740    -0.5820     1.3140 n7         1 BZN      -0.583200
      7 C15          2.0760    -1.2550    -0.6940 c3         1 BZN       0.235800
      8 N16          1.7060    -1.2240    -2.1110 n3         1 BZN      -0.524500
      9 C24          2.2140    -0.1580    -2.9780 c3         1 BZN       0.231800
     10 C25          3.6010    -0.5420    -3.4990 c3         1 BZN      -0.077700
     11 C27          3.4830    -1.7750    -4.4000 c3         1 BZN       0.000400
     12 C26          4.1850     0.6210    -4.3020 c3         1 BZN       0.000400
     13 S17          0.7120    -2.3940    -2.7330 sy         1 BZN       1.053200
     14 O29          0.8680    -2.3430    -4.1450 o          1 BZN      -0.586300
     15 O28          0.9450    -3.5670    -1.9680 o          1 BZN      -0.586300
     16 C18         -0.9460    -1.9010    -2.3980 ca         1 BZN      -0.165500
     17 C23         -1.5850    -1.0080    -3.2360 ca         1 BZN       0.009000
     18 C22         -2.8860    -0.6220    -2.9720 ca         1 BZN      -0.136000
     19 C21         -3.5480    -1.1300    -1.8700 ca         1 BZN      -0.048000
     20 C20         -2.9090    -2.0250    -1.0320 ca         1 BZN      -0.136000
     21 C19         -1.6100    -2.4140    -1.2990 ca         1 BZN       0.009000
     22 O7           3.2130     1.1810     3.1740 os         1 BZN      -0.409600
     23 C8           3.9810     2.3120     3.5900 c3         1 BZN       0.272700
     24 C9           4.4120     2.1270     5.0220 ca         1 BZN      -0.107300
     25 C14          5.6100     1.4990     5.3090 ca         1 BZN      -0.078000
     26 C13          6.0050     1.3300     6.6220 ca         1 BZN      -0.105000
     27 C12          5.2020     1.7910     7.6500 ca         1 BZN      -0.094000
     28 C11          4.0050     2.4200     7.3630 ca         1 BZN      -0.105000
     29 C10          3.6130     2.5920     6.0490 ca         1 BZN      -0.078000
     30 H2          -0.3760    -0.6180    -0.8060 h1         1 BZN       0.024200
     31 H2A         -0.3760     1.0120    -0.0840 h1         1 BZN       0.024200
     32 H3           1.9180     0.8920    -0.4870 hc         1 BZN       0.035700
     33 H4           2.5130    -0.8920     1.7230 hc         1 BZN       0.052700
     34 H5           0.3260     1.0120     2.5270 h1         1 BZN       0.017200
     35 H5A          0.6890    -0.6200     3.1500 h1         1 BZN       0.017200
     36 H6           2.1250     2.1300     1.7040 h1         1 BZN      -0.008800
     37 H6A          3.6020     1.3270     1.1560 h1         1 BZN      -0.008800
     38 HN1         -1.2960    -0.2810     1.5620 hn         1 BZN       0.251800
     39 H15          1.6470    -2.1340    -0.2280 h1         1 BZN       0.036200
     40 H15A         3.1550    -1.2880    -0.6030 h1         1 BZN       0.036200
     41 H24          2.2830     0.7650    -2.4130 h1         1 BZN       0.021700
     42 H24A         1.5390    -0.0200    -3.8140 h1         1 BZN       0.021700
     43 H25          4.2520    -0.7670    -2.6630 hc         1 BZN       0.026700
     44 H27          4.4290    -1.9520    -4.8950 hc         1 BZN       0.008867
     45 H27A         2.7120    -1.6070    -5.1420 hc         1 BZN       0.008867
     46 H27B         3.2230    -2.6380    -3.7980 hc         1 BZN       0.008867
     47 H26          4.2520     1.4990    -3.6700 hc         1 BZN       0.008867
     48 H26A         3.5430     0.8350    -5.1480 hc         1 BZN       0.008867
     49 H26B         5.1730     0.3550    -4.6560 hc         1 BZN       0.008867
     50 H23         -1.0670    -0.6100    -4.1000 ha         1 BZN       0.126000
     51 H22         -3.3870     0.0790    -3.6290 ha         1 BZN       0.110500
     52 H21         -4.5670    -0.8260    -1.6620 ha         1 BZN       0.102000
     53 H20         -3.4290    -2.4250    -0.1700 ha         1 BZN       0.110500
     54 H19         -1.1100    -3.1150    -0.6420 ha         1 BZN       0.126000
     55 H8           3.3790     3.2080     3.5070 h1         1 BZN      -0.007800
     56 H8A          4.8570     2.4050     2.9590 h1         1 BZN      -0.007800
     57 H14          6.2380     1.1390     4.5030 ha         1 BZN       0.105000
     58 H13          6.9430     0.8380     6.8460 ha         1 BZN       0.103000
     59 H12          5.5110     1.6570     8.6800 ha         1 BZN       0.102000
     60 H11          3.3780     2.7830     8.1680 ha         1 BZN       0.103000
     61 H10          2.6750     3.0850     5.8240 ha         1 BZN       0.105000
@<TRIPOS>BOND
     1     1     2 1   
     2     1     6 1   
     3     1    30 1   
     4     1    31 1   
     5     2     3 1   
     6     2     7 1   
     7     2    32 1   
     8     3     4 1   
     9     3     5 1   
    10     3    33 1   
    11     4     6 1   
    12     4    34 1   
    13     4    35 1   
    14     5    22 1   
    15     5    36 1   
    16     5    37 1   
    17     6    38 1   
    18     7     8 1   
    19     7    39 1   
    20     7    40 1   
    21     8     9 1   
    22     8    13 1   
    23     9    10 1   
    24     9    41 1   
    25     9    42 1   
    26    10    11 1   
    27    10    12 1   
    28    10    43 1   
    29    11    44 1   
    30    11    45 1   
    31    11    46 1   
    32    12    47 1   
    33    12    48 1   
    34    12    49 1   
    35    13    14 2   
    36    13    15 2   
    37    13    16 1   
    38    16    17 ar  
    39    16    21 ar  
    40    17    18 ar  
    41    17    50 1   
    42    18    19 ar  
    43    18    51 1   
    44    19    20 ar  
    45    19    52 1   
    46    20    21 ar  
    47    20    53 1   
    48    21    54 1   
    49    22    23 1   
    50    23    24 1   
    51    23    55 1   
    52    23    56 1   
    53    24    25 ar  
    54    24    29 ar  
    55    25    26 ar  
    56    25    57 1   
    57    26    27 ar  
    58    26    58 1   
    59    27    28 ar  
    60    27    59 1   
    61    28    29 ar  
    62    28    60 1   
    63    29    61 1   
@<TRIPOS>SUBSTRUCTURE
     1 BZN         1 TEMP              0 ****  ****    0 ROOT
