@<TRIPOS>MOLECULE
molecule
   18    18     1     0     0
SMALL
bcc


@<TRIPOS>ATOM
      1 C1           0.0000     0.0000     0.0000 c          1 BZO       0.644900
      2 O1           1.2090     0.0000     0.0000 o          1 BZO      -0.491000
      3 O2          -0.6700     0.0000     1.1640 os         1 BZO      -0.435900
      4 C2          -2.1220     0.0000     1.1640 c3         1 BZO       0.203700
      5 C3          -2.6240    -0.0000     2.5840 ca         1 BZO      -0.101300
      6 C4          -2.8540     1.1970     3.2370 ca         1 BZO      -0.099500
      7 C5          -3.3150     1.1960     4.5400 ca         1 BZO      -0.131000
      8 C6          -3.5450    -0.0020     5.1920 ca         1 BZO      -0.113000
      9 C7          -3.3160    -1.1980     4.5390 ca         1 BZO      -0.131000
     10 C8          -2.8600    -1.1980     3.2340 ca         1 BZO      -0.099500
     11 H11         -0.5420    -0.0420    -0.9370 h5         1 BZO       0.004200
     12 H21         -2.4830     0.8850     0.6540 h1         1 BZO       0.041700
     13 H22         -2.4840    -0.8840     0.6530 h1         1 BZO       0.041700
     14 H4          -2.6740     2.1350     2.7260 ha         1 BZO       0.133000
     15 H5          -3.4950     2.1340     5.0520 ha         1 BZO       0.133500
     16 H6          -3.9040    -0.0020     6.2140 ha         1 BZO       0.132000
     17 H7          -3.4980    -2.1360     5.0480 ha         1 BZO       0.133500
     18 H8          -2.6800    -2.1360     2.7230 ha         1 BZO       0.133000
@<TRIPOS>BOND
     1     1     2 2
     2     1     3 1
     3     1    11 1
     4     3     4 1
     5     4     5 1
     6     4    12 1
     7     4    13 1
     8     5     6 ar
     9     5    10 ar
    10     6     7 ar
    11     6    14 1
    12     7     8 ar
    13     7    15 1
    14     8     9 ar
    15     8    16 1
    16     9    10 ar
    17     9    17 1
    18    10    18 1
@<TRIPOS>SUBSTRUCTURE
     1 BZO         1 TEMP              0 ****  ****    0 ROOT
