@<TRIPOS>MOLECULE
molecule
   18    18     1     0     0
SMALL
bcc


@<TRIPOS>ATOM
      1 N1           0.0000     0.0000     0.0000 n          1 BZP      -0.531800
      2 C1          -0.6950     0.8700    -0.7590 c          1 BZP       0.997600
      3 O1          -0.1060     1.6720    -1.4560 o          1 BZP      -0.870800
      4 O2          -2.0400     0.8520    -0.7430 o          1 BZP      -0.870800
      5 C2           1.4710     0.0000     0.0000 c3         1 BZP       0.127500
      6 C3           1.9540     0.0000     1.4540 c3         1 BZP       0.124800
      7 N4           1.3750    -1.1440     2.1660 n7         1 BZP      -0.806200
      8 C5          -0.0720    -0.9190     2.2540 c3         1 BZP       0.124800
      9 C6          -0.6890    -0.9760     0.8570 c3         1 BZP       0.127500
     10 H21          1.8350     0.8870    -0.5040 h1         1 BZP       0.045450
     11 H22          1.8350    -0.8870    -0.5040 h1         1 BZP       0.045450
     12 H31          1.6420     0.9190     1.9360 h1         1 BZP       0.019450
     13 H32          3.0350    -0.0750     1.4740 h1         1 BZP       0.019450
     14 HN4          1.7610    -1.1930     3.0880 hn         1 BZP       0.318800
     15 H51         -0.5180    -1.6870     2.8740 h1         1 BZP       0.019450
     16 H52         -0.2590     0.0560     2.6880 h1         1 BZP       0.019450
     17 H61         -1.7420    -0.7290     0.9150 h1         1 BZP       0.045450
     18 H62         -0.5640    -1.9710     0.4470 h1         1 BZP       0.045450
@<TRIPOS>BOND
     1     1     2 1
     2     1     5 1
     3     1     9 1
     4     2     3 1
     5     2     4 1
     6     5     6 1
     7     5    10 1
     8     5    11 1
     9     6     7 1
    10     6    12 1
    11     6    13 1
    12     7     8 1
    13     7    14 1
    14     8     9 1
    15     8    15 1
    16     8    16 1
    17     9    17 1
    18     9    18 1
@<TRIPOS>SUBSTRUCTURE
     1 BZP         1 TEMP              0 ****  ****    0 ROOT
