@<TRIPOS>MOLECULE
BZQ
   24    25     1     0     0
SMALL
bcc


@<TRIPOS>ATOM
      1 C1         -0.0900   -0.2780    0.0220 ca        1 BZQ     -0.143500
      2 C2          1.3020   -0.2150   -0.0530 ca        1 BZQ     -0.105000
      3 C3          2.0550   -0.0220    1.1050 ca        1 BZQ     -0.143500
      4 C4          1.4190    0.1090    2.3380 ca        1 BZQ     -0.085500
      5 C5          0.0200    0.0610    2.4160 ca        1 BZQ     -0.168100
      6 C6         -0.7310   -0.1370    1.2520 ca        1 BZQ     -0.085500
      7 C7         -0.6290    0.1860    3.7400 c         1 BZQ      0.588300
      8 C8         -2.8710    0.4140    4.7840 ca        1 BZQ     -0.085500
      9 C9         -1.9610    0.8280    3.8000 ca        1 BZQ     -0.168100
     10 C10        -2.3150    1.8580    2.9210 ca        1 BZQ     -0.085500
     11 C11        -3.5680    2.4610    3.0200 ca        1 BZQ     -0.143500
     12 C12        -4.4750    2.0360    3.9910 ca        1 BZQ     -0.105000
     13 C13        -4.1260    1.0130    4.8720 ca        1 BZQ     -0.143500
     14 O          -0.0740   -0.2330    4.7660 o         1 BZQ     -0.529100
     15 H1         -0.6840   -0.4400   -0.8890 ha        1 BZQ      0.136500
     16 H2          1.8050   -0.3230   -1.0260 ha        1 BZQ      0.134000
     17 H3          3.1530    0.0220    1.0480 ha        1 BZQ      0.136500
     18 H4          2.0050    0.2420    3.2600 ha        1 BZQ      0.146500
     19 H6         -1.8300   -0.1890    1.3100 ha        1 BZQ      0.146500
     20 H10        -1.5980    2.1960    2.1560 ha        1 BZQ      0.146500
     21 H11        -3.8390    3.2740    2.3310 ha        1 BZQ      0.136500
     22 H12        -5.4650    2.5110    4.0640 ha        1 BZQ      0.134000
     23 H13        -4.8380    0.6800    5.6410 ha        1 BZQ      0.136500
     24 H8         -2.5780   -0.3820    5.4870 ha        1 BZQ      0.146500
@<TRIPOS>BOND
     1    1    2 ar  
     2    1    6 ar  
     3    1   15 1   
     4    2    3 ar  
     5    2   16 1   
     6    3    4 ar  
     7    3   17 1   
     8    4    5 ar  
     9    4   18 1   
    10    5    6 ar  
    11    5    7 1   
    12    6   19 1   
    13    7    9 1   
    14    7   14 2   
    15    8    9 ar  
    16    8   13 ar  
    17    8   24 1   
    18    9   10 ar  
    19   10   11 ar  
    20   10   20 1   
    21   11   12 ar  
    22   11   21 1   
    23   12   13 ar  
    24   12   22 1   
    25   13   23 1   
@<TRIPOS>SUBSTRUCTURE
     1 BZQ         1 TEMP              0 ****  ****    0 ROOT
