@<TRIPOS>MOLECULE
molecule
   24    25     1     0     0
SMALL
bcc


@<TRIPOS>ATOM
      1 C1           0.0000     0.0000     0.0000 ca         1 BZQ      -0.141750
      2 C2           1.3840     0.0000     0.0000 ca         1 BZQ      -0.102500
      3 C3           2.0810     0.0000     1.1940 ca         1 BZQ      -0.141750
      4 C4           1.4010    -0.0000     2.3940 ca         1 BZQ      -0.087000
      5 C5           0.0050     0.0010     2.4010 ca         1 BZQ      -0.168600
      6 C6          -0.6930    -0.0070     1.1920 ca         1 BZQ      -0.087000
      7 C7          -0.7300     0.0010     3.6820 c          1 BZQ       0.591300
      8 C8          -2.8000     0.5760     4.9450 ca         1 BZQ      -0.087000
      9 C9          -2.0230     0.7070     3.7900 ca         1 BZQ      -0.168600
     10 C10         -2.4730     1.5120     2.7430 ca         1 BZQ      -0.087000
     11 C11         -3.6850     2.1630     2.8500 ca         1 BZQ      -0.141750
     12 C12         -4.4480     2.0290     3.9960 ca         1 BZQ      -0.102500
     13 C13         -4.0060     1.2370     5.0400 ca         1 BZQ      -0.141750
     14 O           -0.2740    -0.5840     4.6450 o          1 BZQ      -0.525100
     15 H1          -0.5400    -0.0030    -0.9390 ha         1 BZQ       0.134000
     16 H2           1.9230     0.0030    -0.9390 ha         1 BZQ       0.131500
     17 H3           3.1640    -0.0000     1.1870 ha         1 BZQ       0.134000
     18 H4           1.9490     0.0030     3.3290 ha         1 BZQ       0.147500
     19 H6          -1.7760    -0.0060     1.1900 ha         1 BZQ       0.147500
     20 H10         -1.8760     1.6190     1.8450 ha         1 BZQ       0.147500
     21 H11         -4.0360     2.7870     2.0370 ha         1 BZQ       0.134000
     22 H12         -5.3970     2.5440     4.0750 ha         1 BZQ       0.131500
     23 H13         -4.6090     1.1370     5.9340 ha         1 BZQ       0.134000
     24 H8          -2.4550    -0.0440     5.7630 ha         1 BZQ       0.147500
@<TRIPOS>BOND
     1     1     2 ar
     2     1     6 ar
     3     1    15 1
     4     2     3 ar
     5     2    16 1
     6     3     4 ar
     7     3    17 1
     8     4     5 ar
     9     4    18 1
    10     5     6 ar
    11     5     7 1
    12     6    19 1
    13     7     9 1
    14     7    14 2
    15     8     9 ar
    16     8    13 ar
    17     8    24 1
    18     9    10 ar
    19    10    11 ar
    20    10    20 1
    21    11    12 ar
    22    11    21 1
    23    12    13 ar
    24    12    22 1
    25    13    23 1
@<TRIPOS>SUBSTRUCTURE
     1 BZQ         1 TEMP              0 ****  ****    0 ROOT
