@<TRIPOS>MOLECULE
molecule
   37    40     1     0     0
SMALL
bcc


@<TRIPOS>ATOM
      1 C4C          0.0000     0.0000     0.0000 c3         1 BZR      -0.054100
      2 C9C          1.5280     0.0000     0.0000 c3         1 BZR       0.135100
      3 O3           2.0100     1.1690    -0.6670 oh         1 BZR      -0.590800
      4 C8B          2.0060     0.0000     1.4570 c3         1 BZR       0.128100
      5 O2           3.4190    -0.2070     1.5030 oh         1 BZR      -0.601800
      6 C3B          1.6650     1.3560     2.0710 c3         1 BZR       0.193400
      7 O1           1.9200     1.3120     3.4770 oh         1 BZR      -0.605800
      8 C3A          0.2130     1.6990     1.8420 ca         1 BZR      -0.066300
      9 C2A         -0.3380     2.7010     2.6570 ca         1 BZR      -0.101000
     10 C4A         -0.5340     1.0880     0.8940 ca         1 BZR      -0.053300
     11 C1A         -1.6230     3.1110     2.5440 ca         1 BZR      -0.124000
     12 C5A         -2.6740     0.8610    -0.2600 ca         1 BZR      -0.111000
     13 C4B         -1.8880     1.4720     0.7150 ca         1 BZR      -0.030000
     14 C6A         -4.8270     0.6550    -1.3920 ca         1 BZR      -0.118000
     15 C7A         -6.1180     1.0590    -1.5170 ca         1 BZR      -0.125000
     16 C8A         -6.6570     2.0550    -0.7020 ca         1 BZR      -0.126000
     17 C5B         -4.0020     1.2530    -0.4160 ca         1 BZR      -0.033000
     18 C9B         -4.5690     2.2990     0.4410 ca         1 BZR      -0.034000
     19 C11         -2.4530     2.5180     1.5700 ca         1 BZR      -0.029000
     20 C9A         -5.9190     2.6700     0.2570 ca         1 BZR      -0.115000
     21 C10         -3.7810     2.9100     1.4150 ca         1 BZR      -0.104000
     22 H4C1        -0.3550    -0.9590     0.3570 hc         1 BZR       0.060700
     23 H4C2        -0.3550     0.1640    -1.0100 hc         1 BZR       0.060700
     24 H9C          1.8910    -0.8890    -0.5020 h1         1 BZR       0.039700
     25 H3           2.4050     0.9220    -1.4860 ho         1 BZR       0.404000
     26 H8B          1.4990    -0.7850     2.0060 h1         1 BZR       0.056700
     27 HO2          3.6010    -1.0450     1.8940 ho         1 BZR       0.404000
     28 H3B          2.2850     2.1180     1.6150 h1         1 BZR       0.074700
     29 H1           2.6810     1.8330     3.6740 ho         1 BZR       0.407000
     30 H2A          0.2910     3.1650     3.4070 ha         1 BZR       0.134000
     31 H1A         -1.9620     3.9850     3.0860 ha         1 BZR       0.135000
     32 H5A         -2.2950     0.0030    -0.8020 ha         1 BZR       0.135000
     33 H6A         -4.4340    -0.1200    -2.0380 ha         1 BZR       0.131000
     34 H7A         -6.7450     0.5960    -2.2690 ha         1 BZR       0.126000
     35 H8A         -7.6920     2.3440    -0.8380 ha         1 BZR       0.127000
     36 H9A         -6.3620     3.4410     0.8760 ha         1 BZR       0.133000
     37 H10         -4.2330     3.5880     2.1300 ha         1 BZR       0.137000
@<TRIPOS>BOND
     1     1     2 1
     2     1    10 1
     3     1    22 1
     4     1    23 1
     5     2     3 1
     6     2     4 1
     7     2    24 1
     8     3    25 1
     9     4     5 1
    10     4     6 1
    11     4    26 1
    12     5    27 1
    13     6     7 1
    14     6     8 1
    15     6    28 1
    16     7    29 1
    17     8     9 ar
    18     8    10 ar
    19     9    11 ar
    20     9    30 1
    21    10    13 ar
    22    11    19 ar
    23    11    31 1
    24    12    13 ar
    25    12    17 ar
    26    12    32 1
    27    13    19 ar
    28    14    15 ar
    29    14    17 ar
    30    14    33 1
    31    15    16 ar
    32    15    34 1
    33    16    20 ar
    34    16    35 1
    35    17    18 ar
    36    18    20 ar
    37    18    21 ar
    38    19    21 ar
    39    20    36 1
    40    21    37 1
@<TRIPOS>SUBSTRUCTURE
     1 BZR         1 TEMP              0 ****  ****    0 ROOT
