@<TRIPOS>MOLECULE
BZR
   37    40     1     0     0
SMALL
bcc


@<TRIPOS>ATOM
      1 C4C         0.0430    0.1660   -0.0940 c3        1 BZR     -0.041100
      2 C9C         1.5120   -0.1940    0.1030 c3        1 BZR      0.123100
      3 O3          2.2670    0.5610   -0.8350 oh        1 BZR     -0.598800
      4 C8B         1.9830    0.0500    1.5400 c3        1 BZR      0.065100
      5 O2          3.3950   -0.1080    1.6220 oh        1 BZR     -0.613800
      6 C3B         1.6980    1.5050    1.9510 c3        1 BZR      0.199400
      7 O1          2.0960    1.7190    3.2980 oh        1 BZR     -0.595800
      8 C3A         0.2370    1.8000    1.8090 ca        1 BZR     -0.075300
      9 C2A        -0.3460    2.7630    2.6880 ca        1 BZR     -0.096000
     10 C4A        -0.5140    1.1890    0.8330 ca        1 BZR     -0.055300
     11 C1A        -1.6610    3.1000    2.5730 ca        1 BZR     -0.127000
     12 C5A        -2.7180    0.9570   -0.3030 ca        1 BZR     -0.111000
     13 C4B        -1.9070    1.5350    0.6820 ca        1 BZR     -0.028000
     14 C6A        -4.9010    0.7150   -1.4390 ca        1 BZR     -0.118000
     15 C7A        -6.2160    1.0650   -1.5490 ca        1 BZR     -0.126000
     16 C8A        -6.7850    2.0260   -0.6610 ca        1 BZR     -0.126000
     17 C5B        -4.0680    1.3030   -0.4330 ca        1 BZR     -0.034000
     18 C9B        -4.6380    2.2650    0.4550 ca        1 BZR     -0.033000
     19 C11        -2.4820    2.5000    1.5650 ca        1 BZR     -0.028000
     20 C9A        -6.0210    2.6070    0.3090 ca        1 BZR     -0.117000
     21 C10        -3.8320    2.8470    1.4380 ca        1 BZR     -0.107000
     22 H4C1       -0.0790    0.5310   -1.1530 hc        1 BZR      0.071200
     23 H4C2       -0.5590   -0.7780    0.0160 hc        1 BZR      0.071200
     24 H9C         1.6620   -1.2870   -0.1440 h1        1 BZR      0.033700
     25 H3          3.1730    0.6130   -0.5010 ho        1 BZR      0.415000
     26 H8B         1.4680   -0.6570    2.2450 h1        1 BZR      0.068700
     27 HO2         3.5770   -1.0520    1.5480 ho        1 BZR      0.412000
     28 H3B         2.2860    2.1940    1.2750 h1        1 BZR      0.065700
     29 H1          3.0290    1.4690    3.3440 ho        1 BZR      0.419000
     30 H2A         0.2970    3.2120    3.4620 ha        1 BZR      0.155000
     31 H1A        -2.1200    3.8380    3.2480 ha        1 BZR      0.135000
     32 H5A        -2.2990    0.2150   -1.0010 ha        1 BZR      0.133000
     33 H6A        -4.4510   -0.0240   -2.1190 ha        1 BZR      0.131000
     34 H7A        -6.8590    0.6160   -2.3200 ha        1 BZR      0.132000
     35 H8A        -7.8470    2.2850   -0.7780 ha        1 BZR      0.132000
     36 H9A        -6.4470    3.3500    1.0000 ha        1 BZR      0.133000
     37 H10        -4.2650    3.5910    2.1240 ha        1 BZR      0.135000
@<TRIPOS>BOND
     1    1    2 1   
     2    1   10 1   
     3    1   22 1   
     4    1   23 1   
     5    2    3 1   
     6    2    4 1   
     7    2   24 1   
     8    3   25 1   
     9    4    5 1   
    10    4    6 1   
    11    4   26 1   
    12    5   27 1   
    13    6    7 1   
    14    6    8 1   
    15    6   28 1   
    16    7   29 1   
    17    8    9 ar  
    18    8   10 ar  
    19    9   11 ar  
    20    9   30 1   
    21   10   13 ar  
    22   11   19 ar  
    23   11   31 1   
    24   12   13 ar  
    25   12   17 ar  
    26   12   32 1   
    27   13   19 ar  
    28   14   15 ar  
    29   14   17 ar  
    30   14   33 1   
    31   15   16 ar  
    32   15   34 1   
    33   16   20 ar  
    34   16   35 1   
    35   17   18 ar  
    36   18   20 ar  
    37   18   21 ar  
    38   19   21 ar  
    39   20   36 1   
    40   21   37 1   
@<TRIPOS>SUBSTRUCTURE
     1 BZR         1 TEMP              0 ****  ****    0 ROOT
