@<TRIPOS>MOLECULE
BZS
   25    25     1     0     0
SMALL
bcc


@<TRIPOS>ATOM
      1 C1          0.2570   -0.8740    0.6480 c         1 BZS      0.898600
      2 C2          0.8630    0.5250    0.5100 c3        1 BZS     -0.159400
      3 CA          1.8550    0.9030    1.5980 c3        1 BZS     -0.144700
      4 C           2.2770    2.3810    1.4410 c         1 BZS      0.901600
      5 CB          3.0810    0.0010    1.5390 c3        1 BZS     -0.059100
      6 CG          3.8050   -0.1730    2.8270 ca        1 BZS     -0.014300
      7 CD1         4.4780   -1.3780    3.0800 ca        1 BZS     -0.139000
      8 CD2         3.8620    0.8440    3.7940 ca        1 BZS     -0.139000
      9 CE1         5.1990   -1.5610    4.2580 ca        1 BZS     -0.154000
     10 CE2         4.5830    0.6560    4.9710 ca        1 BZS     -0.154000
     11 CZ          5.2570   -0.5430    5.2080 ca        1 BZS     -0.183000
     12 O1         -0.9290   -0.9920    1.0880 o         1 BZS     -0.884300
     13 O2          0.9250   -1.8890    0.2720 o         1 BZS     -0.884300
     14 O3          2.7840    2.7850    0.3530 o         1 BZS     -0.876300
     15 O4          2.1290    3.1580    2.4380 o         1 BZS     -0.876300
     16 H21         1.3780    0.5960   -0.4820 hc        1 BZS      0.027700
     17 H22         0.0300    1.2740    0.5220 hc        1 BZS      0.027700
     18 HA          1.3540    0.7870    2.5970 hc        1 BZS      0.041700
     19 HB1         3.8000    0.4360    0.7900 hc        1 BZS      0.076200
     20 HB2         2.7590   -1.0100    1.1540 hc        1 BZS      0.076200
     21 HD1         4.4210   -2.1890    2.3390 ha        1 BZS      0.168000
     22 HD2         3.3210    1.7960    3.6030 ha        1 BZS      0.168000
     23 HE1         5.7180   -2.5120    4.4410 ha        1 BZS      0.097000
     24 HE2         4.6200    1.4610    5.7190 ha        1 BZS      0.097000
     25 HZ          5.8230   -0.6850    6.1380 ha        1 BZS      0.088000
@<TRIPOS>BOND
     1    1    2 1   
     2    1   12 1   
     3    1   13 1   
     4    2    3 1   
     5    2   16 1   
     6    2   17 1   
     7    3    4 1   
     8    3    5 1   
     9    3   18 1   
    10    4   14 1   
    11    4   15 1   
    12    5    6 1   
    13    5   19 1   
    14    5   20 1   
    15    6    7 ar  
    16    6    8 ar  
    17    7    9 ar  
    18    7   21 1   
    19    8   10 ar  
    20    8   22 1   
    21    9   11 ar  
    22    9   23 1   
    23   10   11 ar  
    24   10   24 1   
    25   11   25 1   
@<TRIPOS>SUBSTRUCTURE
     1 BZS         1 TEMP              0 ****  ****    0 ROOT
