@<TRIPOS>MOLECULE
molecule
   25    25     1     0     0
SMALL
bcc


@<TRIPOS>ATOM
      1 C1           0.0000     0.0000     0.0000 c          1 BZS       0.912600
      2 C2           1.5070     0.0000     0.0000 c3         1 BZS      -0.157400
      3 CA           2.0170     0.0000     1.4430 c3         1 BZS      -0.150700
      4 C            1.5140     1.2290     2.1530 c          1 BZS       0.912600
      5 CB           3.5460    -0.0000     1.4420 c3         1 BZS      -0.024100
      6 CG           4.0480    -0.0010     2.8620 ca         1 BZS      -0.021300
      7 CD1          4.2790    -1.1970     3.5140 ca         1 BZS      -0.075000
      8 CD2          4.2840     1.1960     3.5120 ca         1 BZS      -0.075000
      9 CE1          4.7400    -1.1980     4.8160 ca         1 BZS      -0.162500
     10 CE2          4.7410     1.1960     4.8170 ca         1 BZS      -0.162500
     11 CZ           4.9710    -0.0020     5.4680 ca         1 BZS      -0.160000
     12 O1          -0.6040    -0.0000     1.0460 o          1 BZS      -0.871800
     13 O2          -0.6720     0.0000    -1.1630 o          1 BZS      -0.871800
     14 O3           0.8200     2.0250     1.5660 o          1 BZS      -0.853300
     15 O4           1.8390     1.4420     3.4370 o          1 BZS      -0.853300
     16 H21          1.8680    -0.8850    -0.5110 hc         1 BZS       0.007200
     17 H22          1.8680     0.8840    -0.5110 hc         1 BZS       0.007200
     18 HA           1.6560    -0.8850     1.9530 hc         1 BZS       0.052700
     19 HB1          3.9070    -0.8840     0.9310 hc         1 BZS       0.013700
     20 HB2          3.9070     0.8850     0.9320 hc         1 BZS       0.013700
     21 HD1          4.0980    -2.1350     3.0030 ha         1 BZS       0.126000
     22 HD2          4.1040     2.1340     3.0020 ha         1 BZS       0.126000
     23 HE1          4.9200    -2.1370     5.3270 ha         1 BZS       0.091500
     24 HE2          4.9240     2.1340     5.3280 ha         1 BZS       0.091500
     25 HZ           5.3310    -0.0020     6.4900 ha         1 BZS       0.083000
@<TRIPOS>BOND
     1     1     2 1
     2     1    12 1
     3     1    13 1
     4     2     3 1
     5     2    16 1
     6     2    17 1
     7     3     4 1
     8     3     5 1
     9     3    18 1
    10     4    14 1
    11     4    15 1
    12     5     6 1
    13     5    19 1
    14     5    20 1
    15     6     7 ar
    16     6     8 ar
    17     7     9 ar
    18     7    21 1
    19     8    10 ar
    20     8    22 1
    21     9    11 ar
    22     9    23 1
    23    10    11 ar
    24    10    24 1
    25    11    25 1
@<TRIPOS>SUBSTRUCTURE
     1 BZS         1 TEMP              0 ****  ****    0 ROOT
