@<TRIPOS>MOLECULE
BZT
   73    78     1     0     0
SMALL
bcc


@<TRIPOS>ATOM
      1 C1           0.0000     0.0000     0.0000 ca         1 BZT       0.138100
      2 C2           1.3860     0.0000     0.0000 ca         1 BZT      -0.094000
      3 C3           2.0640     0.0000     1.2000 ca         1 BZT       0.072900
      4 C4           1.3920    -0.0100     2.4430 ca         1 BZT      -0.095800
      5 C5          -0.0240    -0.0160     2.4000 ca         1 BZT      -0.046000
      6 C6          -0.6850    -0.0120     1.2120 ca         1 BZT      -0.138000
      7 S1           3.7800     0.0060     1.6470 ss         1 BZT      -0.255500
      8 C8           3.6040    -0.0070     3.4210 cc         1 BZT       0.113400
      9 C9           2.2640    -0.0130     3.6050 cd         1 BZT      -0.085400
     10 C7           1.6830    -0.0250     4.9960 c3         1 BZT       0.074100
     11 C10          4.6690    -0.0070     4.4470 ca         1 BZT      -0.049800
     12 C12          5.7130    -0.9310     4.3710 ca         1 BZT      -0.047000
     13 C14          6.7040    -0.9280     5.3290 ca         1 BZT      -0.183500
     14 C16          6.6650    -0.0080     6.3680 ca         1 BZT       0.138100
     15 C18          5.6290     0.9130     6.4460 ca         1 BZT      -0.183500
     16 C20          4.6370     0.9190     5.4890 ca         1 BZT      -0.047000
     17 O2           7.6440    -0.0080     7.3100 os         1 BZT      -0.278900
     18 C24          7.3310     1.0380     8.2320 c3         1 BZT       0.169400
     19 C11          2.5150    -2.1010     6.1190 ca         1 BZT      -0.098000
     20 C13          1.4950    -1.4500     5.4500 ca         1 BZT      -0.079300
     21 C15          0.3030    -2.1020     5.2020 ca         1 BZT      -0.088000
     22 C32          0.1330    -3.4120     5.6140 ca         1 BZT       0.058100
     23 C19          1.1530    -4.0630     6.2840 ca         1 BZT      -0.082300
     24 C21          2.3430    -3.4070     6.5360 ca         1 BZT      -0.094000
     25 Br1         -1.4950    -4.3080     5.2690 br         1 BZT      -0.108100
     26 C31          0.9660    -5.4880     6.7390 c3         1 BZT       0.196100
     27 C17         -0.3050    -5.5930    10.0610 c3         1 BZT      -0.038900
     28 C23         -0.0170    -7.0400     9.5870 c3         1 BZT      -0.038900
     29 C26         -0.2980    -6.9720     8.0710 c3         1 BZT       0.140800
     30 N2          -0.1710    -5.5590     7.6660 n3         1 BZT      -0.524600
     31 C27          0.1980    -4.7620     8.8540 c3         1 BZT       0.140800
     32 C22         10.6900     1.3910     9.8170 c3         1 BZT       0.137800
     33 N3           9.7120     1.3520     8.7150 n3         1 BZT      -0.532600
     34 C28         10.0170     0.1900     7.8540 c3         1 BZT       0.137800
     35 C29         11.5210    -0.0930     8.0940 c3         1 BZT      -0.038900
     36 C30         11.6600     0.2100     9.6090 c3         1 BZT      -0.038900
     37 C34          8.4000     1.0910     9.3250 c3         1 BZT       0.134800
     38 O1          -0.6860     0.0050    -1.1740 oh         1 BZT      -0.496100
     39 H2           1.9310     0.0090    -0.9360 ha         1 BZT       0.124000
     40 H5          -0.5860    -0.0260     3.3260 ha         1 BZT       0.109000
     41 H6          -1.7680    -0.0120     1.2090 ha         1 BZT       0.115000
     42 H71          0.7260     0.4830     4.9910 hc         1 BZT       0.031700
     43 H72          2.3580     0.4840     5.6730 hc         1 BZT       0.031700
     44 H12          5.7440    -1.6490     3.5610 ha         1 BZT       0.116500
     45 H14          7.5140    -1.6450     5.2710 ha         1 BZT       0.127500
     46 H18          5.6030     1.6310     7.2570 ha         1 BZT       0.127500
     47 H20          3.8290     1.6390     5.5500 ha         1 BZT       0.116500
     48 H241         6.3640     0.8450     8.6820 h1         1 BZT       0.019200
     49 H242         7.3030     1.9850     7.7070 h1         1 BZT       0.019200
     50 H11          3.4480    -1.5870     6.3160 ha         1 BZT       0.116000
     51 H15         -0.4950    -1.5920     4.6770 ha         1 BZT       0.120000
     52 H21          3.1420    -3.9170     7.0610 ha         1 BZT       0.108000
     53 H311         1.8630    -5.8280     7.2410 h1         1 BZT       0.020700
     54 H312         0.7710    -6.1180     5.8800 h1         1 BZT       0.020700
     55 H171         0.2630    -5.3590    10.9530 hc         1 BZT       0.020200
     56 H172        -1.3660    -5.4420    10.2170 hc         1 BZT       0.020200
     57 H231         1.0180    -7.3030     9.7710 hc         1 BZT       0.020200
     58 H232        -0.6890    -7.7400    10.0680 hc         1 BZT       0.020200
     59 H261        -1.3020    -7.3240     7.8670 h1         1 BZT       0.019950
     60 H262         0.4260    -7.5750     7.5350 h1         1 BZT       0.019950
     61 H271         1.2730    -4.6380     8.9050 h1         1 BZT       0.019950
     62 H272        -0.2980    -3.7990     8.8290 h1         1 BZT       0.019950
     63 H222        11.2370     2.3250     9.7890 h1         1 BZT       0.025450
     64 H281         9.4220    -0.6650     8.1520 h1         1 BZT       0.025450
     65 H282         9.8420     0.4370     6.8140 h1         1 BZT       0.025450
     66 H291        11.7570    -1.1300     7.8860 hc         1 BZT       0.020200
     67 H292        12.1380     0.5780     7.5090 hc         1 BZT       0.020200
     68 H301        12.6750     0.5040     9.8480 hc         1 BZT       0.020200
     69 H302        11.3520    -0.6450    10.1980 hc         1 BZT       0.020200
     70 H341         8.1630     1.8840    10.0230 h1         1 BZT       0.018200
     71 H342         8.4280     0.1440     9.8500 h1         1 BZT       0.018200
     72 HO1         -0.8010     0.8940    -1.4670 ho         1 BZT       0.404000
     73 H221        10.1790     1.2840    10.7660 h1         1 BZT       0.025450
@<TRIPOS>BOND
     1     1     2 ar  
     2     1     6 ar  
     3     1    38 1   
     4     2     3 ar  
     5     2    39 1   
     6     3     4 ar  
     7     3     7 1   
     8     4     5 ar  
     9     4     9 1   
    10     5     6 ar  
    11     5    40 1   
    12     6    41 1   
    13     7     8 1   
    14     8     9 2   
    15     8    11 1   
    16     9    10 1   
    17    10    20 1   
    18    10    42 1   
    19    10    43 1   
    20    11    12 ar  
    21    11    16 ar  
    22    12    13 ar  
    23    12    44 1   
    24    13    14 ar  
    25    13    45 1   
    26    14    15 ar  
    27    14    17 1   
    28    15    16 ar  
    29    15    46 1   
    30    16    47 1   
    31    17    18 1   
    32    18    37 1   
    33    18    48 1   
    34    18    49 1   
    35    19    20 ar  
    36    19    24 ar  
    37    19    50 1   
    38    20    21 ar  
    39    21    22 ar  
    40    21    51 1   
    41    22    23 ar  
    42    22    25 1   
    43    23    24 ar  
    44    23    26 1   
    45    24    52 1   
    46    26    30 1   
    47    26    53 1   
    48    26    54 1   
    49    27    28 1   
    50    27    31 1   
    51    27    55 1   
    52    27    56 1   
    53    28    29 1   
    54    28    57 1   
    55    28    58 1   
    56    29    30 1   
    57    29    59 1   
    58    29    60 1   
    59    30    31 1   
    60    31    61 1   
    61    31    62 1   
    62    32    33 1   
    63    32    36 1   
    64    32    63 1   
    65    32    73 1   
    66    33    34 1   
    67    33    37 1   
    68    34    35 1   
    69    34    64 1   
    70    34    65 1   
    71    35    36 1   
    72    35    66 1   
    73    35    67 1   
    74    36    68 1   
    75    36    69 1   
    76    37    70 1   
    77    37    71 1   
    78    38    72 1   
@<TRIPOS>SUBSTRUCTURE
     1 BZT         1 TEMP              0 ****  ****    0 ROOT
