@<TRIPOS>MOLECULE
molecule
   45    46     1     0     0
SMALL
bcc


@<TRIPOS>ATOM
      1 C3           0.0000     0.0000     0.0000 cc         1 BZU      -0.378600
      2 C9           3.6340     0.4630     3.1830 c3         1 BZU       0.139800
      3 C10          3.3880    -0.0230     1.7310 c3         1 BZU       0.214800
      4 C12          4.0250    -1.6130     5.8440 c3         1 BZU       0.163400
      5 C14          3.6790    -3.9300     6.0420 c3         1 BZU       0.128400
      6 C15          2.6260    -5.0120     5.9370 c3         1 BZU      -0.093100
      7 O1A         -0.5910    -0.5440    -2.4750 o          1 BZU      -0.472300
      8 O2A         -2.4300    -0.5590    -0.7540 o          1 BZU      -0.472300
      9 N21         -1.4180     1.6920    -1.4940 nz         1 BZU      -0.783500
     10 S1          -1.2030     0.0120    -1.2820 sy         1 BZU       1.166200
     11 C4           1.3800     0.0000     0.0000 cd         1 BZU       0.037000
     12 C5           1.9300     0.0000     1.3230 cd         1 BZU      -0.014300
     13 C6           0.9110    -0.0420     2.2520 cc         1 BZU      -0.204600
     14 S2          -0.6430    -0.0220     1.5890 ss         1 BZU       0.217200
     15 S7           1.0930    -0.0810     4.0010 sy         1 BZU       1.243200
     16 O3B          0.3830    -1.2570     4.4590 o          1 BZU      -0.542800
     17 O4B          0.7440     1.2550     4.4380 o          1 BZU      -0.542800
     18 N8           2.8000    -0.3290     4.1540 n3         1 BZU      -0.570500
     19 N16          4.1680     0.8240     0.8270 n7         1 BZU      -0.816200
     20 O13          3.0800    -2.6720     5.7590 os         1 BZU      -0.405600
     21 C17          5.5720     0.8240     1.2070 c3         1 BZU       0.148800
     22 C18          6.3810     1.6610     0.2750 c3         1 BZU      -0.094100
     23 H91          4.6760     0.2900     3.4210 h1         1 BZU       0.092200
     24 H92          3.3230     1.4990     3.2440 h1         1 BZU       0.092200
     25 H10          3.7480    -1.0420     1.6490 h1         1 BZU       0.061700
     26 H111         3.6480    -0.7410     4.5970 h1         1 BZU       0.210200
     27 H112         3.9880     0.5510     5.7110 h1         1 BZU       0.210200
     28 H121         4.8210    -1.7810     5.1280 h1         1 BZU       0.027200
     29 H122         4.4400    -1.5780     6.8440 h1         1 BZU       0.027200
     30 H141         4.4300    -4.0790     5.2760 h1         1 BZU       0.024200
     31 H142         4.1440    -3.9690     7.0190 h1         1 BZU       0.024200
     32 H151         1.6940    -4.6500     6.3530 hc         1 BZU       0.050033
     33 H152         2.9520    -5.8870     6.4870 hc         1 BZU       0.050033
     34 H153         2.4800    -5.2730     4.8960 hc         1 BZU       0.050033
     35 HN11        -1.6220     2.1160    -0.6110 hn         1 BZU       0.487467
     36 HN12        -0.5810     2.0900    -1.8710 hn         1 BZU       0.487467
     37 H4           1.9820     0.0000    -0.9010 ha         1 BZU       0.174000
     38 HN6          4.0760     0.4850    -0.1100 hn         1 BZU       0.362800
     39 H171         5.6680     1.2180     2.2110 h1         1 BZU       0.037700
     40 H172         5.9460    -0.1920     1.1860 h1         1 BZU       0.037700
     41 H181         6.5510     2.6340     0.7190 hc         1 BZU       0.050033
     42 H182         7.3320     1.1780     0.0880 hc         1 BZU       0.050033
     43 H183         5.8460     1.7790    -0.6600 hc         1 BZU       0.050033
     44 C11          3.3370    -0.2970     5.5350 c3         1 BZU      -0.213200
     45 H213        -2.1850     1.8540    -2.1170 hn         1 BZU       0.487467
@<TRIPOS>BOND
     1     1    10 1
     2     1    11 2
     3     1    14 1
     4     2     3 1
     5     2    18 1
     6     2    23 1
     7     2    24 1
     8     3    12 1
     9     3    19 1
    10     3    25 1
    11    44     4 1
    12    44    18 1
    13    44    26 1
    14    44    27 1
    15     4    20 1
    16     4    28 1
    17     4    29 1
    18     5     6 1
    19     5    20 1
    20     5    30 1
    21     5    31 1
    22     6    32 1
    23     6    33 1
    24     6    34 1
    25     7    10 2
    26     8    10 2
    27     9    10 1
    28     9    35 1
    29     9    36 1
    30    11    12 1
    31    11    37 1
    32    12    13 2
    33    13    14 1
    34    13    15 1
    35    15    16 2
    36    15    17 2
    37    15    18 1
    38    19    21 1
    39    19    38 1
    40    21    22 1
    41    21    39 1
    42    21    40 1
    43    22    41 1
    44    22    42 1
    45    22    43 1
    46    45     9 1
@<TRIPOS>SUBSTRUCTURE
     1 BZU         1 TEMP              0 ****  ****    0 ROOT
