@<TRIPOS>MOLECULE
BZU
   45    47     1     0     0
SMALL
bcc


@<TRIPOS>ATOM
      1 C3           0.0000     0.0000     0.0000 c2         1 BZU      -0.930000
      2 C9           3.6340     0.4630     3.1830 c3         1 BZU      -0.121000
      3 C10          3.3880    -0.0230     1.7310 c3         1 BZU      -0.019000
      4 C12          4.0250    -1.6130     5.8440 c3         1 BZU       0.116000
      5 C14          3.6790    -3.9300     6.0420 c3         1 BZU       0.058000
      6 C15          2.6260    -5.0120     5.9370 c3         1 BZU      -0.120000
      7 O1A         -0.5910    -0.5440    -2.4750 o          1 BZU      -0.724000
      8 O2A         -2.4300    -0.5590    -0.7540 o          1 BZU      -0.724000
      9 N21         -1.4180     1.6920    -1.4940 nz         1 BZU       0.172000
     10 S1          -1.2030     0.0120    -1.2820 s6         1 BZU       2.223000
     11 C4           1.3800     0.0000     0.0000 c2         1 BZU       0.092000
     12 C5           1.9300     0.0000     1.3230 c2         1 BZU      -0.029000
     13 C6           0.9110    -0.0420     2.2520 c2         1 BZU      -0.698000
     14 S2          -0.6430    -0.0220     1.5890 ss         1 BZU       0.575000
     15 S7           1.0930    -0.0810     4.0010 s6         1 BZU       2.238000
     16 O3B          0.3830    -1.2570     4.4590 o          1 BZU      -0.770500
     17 O4B          0.7440     1.2550     4.4380 o          1 BZU      -0.770500
     18 N8           2.8000    -0.3290     4.1540 nx         1 BZU      -0.227000
     19 N16          4.1680     0.8240     0.8270 n7         1 BZU      -0.059000
     20 O13          3.0800    -2.6720     5.7590 os         1 BZU      -0.252000
     21 C17          5.5720     0.8240     1.2070 c3         1 BZU      -0.104000
     22 C18          6.3810     1.6610     0.2750 c3         1 BZU      -0.112000
     23 H91          4.6760     0.2900     3.4210 hx         1 BZU       0.098000
     24 H92          3.3230     1.4990     3.2440 hx         1 BZU       0.098000
     25 H10          3.7480    -1.0420     1.6490 h1         1 BZU       0.073000
     26 H111         3.6480    -0.7410     4.5970 DU         1 BZU       0.238000
     27 H112         3.9880     0.5510     5.7110 hx         1 BZU       0.117000
     28 H121         4.8210    -1.7810     5.1280 h1         1 BZU       0.025000
     29 H122         4.4400    -1.5780     6.8440 h1         1 BZU       0.025000
     30 H141         4.4300    -4.0790     5.2760 h1         1 BZU       0.027500
     31 H142         4.1440    -3.9690     7.0190 h1         1 BZU       0.027500
     32 H151         1.6940    -4.6500     6.3530 hc         1 BZU       0.052667
     33 H152         2.9520    -5.8870     6.4870 hc         1 BZU       0.052667
     34 H153         2.4800    -5.2730     4.8960 hc         1 BZU       0.052667
     35 HN11        -1.6220     2.1160    -0.6110 hn         1 BZU       0.104667
     36 HN12        -0.5810     2.0900    -1.8710 hn         1 BZU       0.104667
     37 H4           1.9820     0.0000    -0.9010 ha         1 BZU       0.136000
     38 HN6          4.0760     0.4850    -0.1100 hn         1 BZU       0.055000
     39 H171         5.6680     1.2180     2.2110 h1         1 BZU       0.053000
     40 H172         5.9460    -0.1920     1.1860 h1         1 BZU       0.053000
     41 H181         6.5510     2.6340     0.7190 hc         1 BZU       0.053667
     42 H182         7.3320     1.1780     0.0880 hc         1 BZU       0.053667
     43 H183         5.8460     1.7790    -0.6600 hc         1 BZU       0.053667
     44 C11          3.3370    -0.2970     5.5350 c3         1 BZU      -0.472000
     45 H213        -2.1850     1.8540    -2.1170 hn         1 BZU       0.104667
@<TRIPOS>BOND
     1     1    10 1   
     2     1    11 1   
     3     1    14 1   
     4     2     3 1   
     5     2    18 1   
     6     2    23 1   
     7     2    24 1   
     8     3    12 1   
     9     3    19 1   
    10     3    25 1   
    11     4    20 1   
    12     4    28 1   
    13     4    29 1   
    14     4    44 1   
    15     5     6 1   
    16     5    20 1   
    17     5    30 1   
    18     5    31 1   
    19     6    32 1   
    20     6    33 1   
    21     6    34 1   
    22     7    10 1   
    23     8    10 1   
    24     9    10 1   
    25     9    35 1   
    26     9    36 1   
    27     9    45 1   
    28    11    12 1   
    29    11    37 1   
    30    12    13 1   
    31    13    14 1   
    32    13    15 1   
    33    15    16 1   
    34    15    17 1   
    35    15    18 1   
    36    18    26 1   
    37    18    44 1   
    38    19    21 1   
    39    19    38 1   
    40    21    22 1   
    41    21    39 1   
    42    21    40 1   
    43    22    41 1   
    44    22    42 1   
    45    22    43 1   
    46    26    44 1   
    47    27    44 1   
@<TRIPOS>SUBSTRUCTURE
     1 BZU         1 TEMP              0 ****  ****    0 ROOT
