@<TRIPOS>MOLECULE
BZX
   16    17     1     0     0
SMALL
bcc


@<TRIPOS>ATOM
      1 C1          0.0320   -0.1050   -0.0240 ca        1 BZX     -0.196000
      2 C2          1.4450   -0.1520    0.0550 ca        1 BZX      0.126100
      3 C3          2.1400   -0.0370    1.2680 ca        1 BZX     -0.165000
      4 C4          1.4520    0.1340    2.4790 ca        1 BZX     -0.075000
      5 C5          0.0740    0.1810    2.4090 ca        1 BZX      0.017100
      6 C6         -0.6220    0.0630    1.1780 ca        1 BZX      0.094100
      7 O7         -1.9890    0.1460    1.4110 os        1 BZX     -0.333900
      8 C8         -2.1590    0.3210    2.8390 c3        1 BZX      0.322200
      9 O9         -0.8470    0.3400    3.4430 os        1 BZX     -0.332900
     10 O10         2.2190   -0.3160   -1.0720 oh        1 BZX     -0.494100
     11 H1         -0.5000   -0.1960   -0.9780 ha        1 BZX      0.157000
     12 H3          3.2390   -0.0820    1.2610 ha        1 BZX      0.157000
     13 H4          1.9890    0.2250    3.4320 ha        1 BZX      0.158000
     14 H8         -2.7250   -0.5550    3.2390 h2        1 BZX      0.072700
     15 H8A        -2.6510    1.3080    3.0190 h2        1 BZX      0.072700
     16 HO10        1.6270   -0.3830   -1.8350 ho        1 BZX      0.421000
@<TRIPOS>BOND
     1    1    2 ar  
     2    1    6 ar  
     3    1   11 1   
     4    2    3 ar  
     5    2   10 1   
     6    3    4 ar  
     7    3   12 1   
     8    4    5 ar  
     9    4   13 1   
    10    5    6 ar  
    11    5    9 1   
    12    6    7 1   
    13    7    8 1   
    14    8    9 1   
    15    8   14 1   
    16    8   15 1   
    17   10   16 1   
@<TRIPOS>SUBSTRUCTURE
     1 BZX         1 TEMP              0 ****  ****    0 ROOT
