@<TRIPOS>MOLECULE
molecule
   16    17     1     0     0
SMALL
bcc


@<TRIPOS>ATOM
      1 C1           0.0000     0.0000     0.0000 ca         1 BZX      -0.142000
      2 C2           1.3880     0.0000     0.0000 ca         1 BZX       0.108100
      3 C3           2.0810     0.0000     1.2010 ca         1 BZX      -0.148000
      4 C4           1.3930    -0.0000     2.3990 ca         1 BZX      -0.101000
      5 C5           0.0070    -0.0010     2.4040 ca         1 BZX       0.041100
      6 C6          -0.6920    -0.0010     1.1990 ca         1 BZX       0.062100
      7 O7          -2.0300    -0.0020     1.4710 os         1 BZX      -0.325900
      8 C8          -2.1440     0.4100     2.8460 c3         1 BZX       0.332200
      9 O9          -0.8940    -0.0000     3.4310 os         1 BZX      -0.326900
     10 O10          2.0670     0.0010    -1.1780 oh         1 BZX      -0.515100
     11 H1          -0.5420     0.0000    -0.9380 ha         1 BZX       0.154000
     12 H3           3.1640     0.0000     1.2000 ha         1 BZX       0.150000
     13 H4           1.9370    -0.0000     3.3360 ha         1 BZX       0.147000
     14 H8          -2.2390     1.4880     2.9000 h2         1 BZX       0.072700
     15 H8A         -2.9630    -0.1170     3.3210 h2         1 BZX       0.072700
     16 HO10         2.1870    -0.8870    -1.4720 ho         1 BZX       0.421000
@<TRIPOS>BOND
     1     1     2 ar
     2     1     6 ar
     3     2     3 ar
     4     2    10 1
     5     3     4 ar
     6     4     5 ar
     7     5     6 ar
     8     5     9 1
     9     6     7 1
    10     7     8 1
    11     8     9 1
    12     1    11 1
    13     3    12 1
    14     4    13 1
    15     8    14 1
    16     8    15 1
    17    10    16 1
@<TRIPOS>SUBSTRUCTURE
     1 BZX         1 TEMP              0 ****  ****    0 ROOT
