@<TRIPOS>MOLECULE
molecule
   58    59     1     0     0
SMALL
bcc


@<TRIPOS>ATOM
      1 C1           0.0000     0.0000     0.0000 ca         1 BZY      -0.068300
      2 C2          -0.7500     0.0060    -1.3070 c3         1 BZY       0.153300
      3 N3          -0.9870     1.3890    -1.7270 ns         1 BZY      -0.578900
      4 C4          -1.6450     1.6400    -2.8760 c          1 BZY       0.654100
      5 C5          -1.8900     3.0630    -3.3090 c3         1 BZY       0.039700
      6 N6          -2.6190     3.0690    -4.5790 ns         1 BZY      -0.532900
      7 C7          -2.5220     4.1280    -5.4070 c          1 BZY       0.643100
      8 C8          -3.2730     4.1340    -6.7140 c3         1 BZY       0.024500
      9 C9          -4.7330     4.5130    -6.4620 c3         1 BZY      -0.103400
     10 C10         -5.5230     4.3980    -7.7670 c3         1 BZY      -0.036100
     11 N11         -2.6630     5.1120    -7.6250 nz         1 BZY      -0.795600
     12 O12         -1.8310     5.0760    -5.1010 o          1 BZY      -0.601100
     13 C13         -2.7160     3.7860    -2.2440 c3         1 BZY      -0.108100
     14 O14         -2.0420     0.7220    -3.5610 o          1 BZY      -0.596100
     15 C15          1.3840     0.0000     0.0000 ca         1 BZY      -0.099000
     16 C16          2.0760     0.0000     1.1930 ca         1 BZY      -0.084500
     17 C17          1.3790     0.0010     2.4010 ca         1 BZY      -0.181900
     18 C18          2.1160     0.0020     3.6850 ce         1 BZY       0.535800
     19 N19          1.4250     0.0030     4.8770 nz         1 BZY      -0.801600
     20 N20          3.4190     0.0020     3.6880 n2         1 BZY      -0.669100
     21 C21         -0.0160     0.0020     2.3950 ca         1 BZY      -0.084500
     22 C22         -0.6970     0.0010     1.1950 ca         1 BZY      -0.099000
     23 C23         -6.9620     4.7710    -7.5190 ca         1 BZY      -0.134300
     24 C24         -7.8720     3.8000    -7.1460 ca         1 BZY      -0.105000
     25 C25         -9.1920     4.1410    -6.9170 ca         1 BZY      -0.141500
     26 C26         -9.6020     5.4570    -7.0620 ca         1 BZY       0.139100
     27 O27        -10.8990     5.7950    -6.8370 oh         1 BZY      -0.512100
     28 C28         -8.6860     6.4310    -7.4360 ca         1 BZY      -0.141500
     29 C29         -7.3680     6.0860    -7.6580 ca         1 BZY      -0.105000
     30 H1          -0.1650    -0.5060    -2.0610 h1         1 BZY       0.078700
     31 H2          -1.7000    -0.5010    -1.1800 h1         1 BZY       0.078700
     32 H3          -0.6390     2.1470    -1.1740 hn         1 BZY       0.323500
     33 H4          -0.9410     3.5700    -3.4360 h1         1 BZY       0.101700
     34 H5          -3.1780     2.2800    -4.8390 hn         1 BZY       0.351500
     35 H6          -3.2280     3.1480    -7.1610 hx         1 BZY       0.124700
     36 H7          -4.7840     5.5320    -6.0970 hc         1 BZY       0.094700
     37 H8          -5.1570     3.8440    -5.7230 hc         1 BZY       0.094700
     38 H9          -5.0990     5.0670    -8.5060 hc         1 BZY       0.045200
     39 H10         -5.4720     3.3790    -8.1320 hc         1 BZY       0.045200
     40 H11         -1.6680     5.0850    -7.5260 hn         1 BZY       0.465133
     41 H12         -2.9110     4.8900    -8.5680 hn         1 BZY       0.465133
     42 H14         -2.0550     4.3440    -1.5920 hc         1 BZY       0.059033
     43 H15         -3.2690     3.0590    -1.6610 hc         1 BZY       0.059033
     44 H16         -3.4090     4.4660    -2.7240 hc         1 BZY       0.059033
     45 H17          1.9250    -0.0010    -0.9390 ha         1 BZY       0.165000
     46 H18          3.1600     0.0000     1.1920 ha         1 BZY       0.146000
     47 H19          0.8520     0.8220     4.9300 hn         1 BZY       0.467800
     48 H20          0.8480    -0.8130     4.9280 hn         1 BZY       0.467800
     49 H21          3.9180     0.0030     4.5560 hn         1 BZY       0.441400
     50 H22         -0.5630     0.0020     3.3300 ha         1 BZY       0.146000
     51 H23         -1.7800     0.0010     1.1890 ha         1 BZY       0.165000
     52 H24         -7.5510     2.7720    -7.0330 ha         1 BZY       0.128000
     53 H25         -9.9050     3.3790    -6.6240 ha         1 BZY       0.158000
     54 H26        -11.3910     5.7060    -7.6370 ho         1 BZY       0.437000
     55 H27         -9.0040     7.4600    -7.5480 ha         1 BZY       0.158000
     56 H28         -6.6520     6.8450    -7.9500 ha         1 BZY       0.128000
     57 H113        -2.9870     6.0300    -7.3930 hn         1 BZY       0.465133
     58 H193         2.0740    -0.0060     5.6390 hn         1 BZY       0.467800
@<TRIPOS>BOND
     1     2     3 1
     2     2     1 1
     3    13     5 1
     4     3     4 1
     5    15     1 ar
     6    15    16 ar
     7     4    14 2
     8     4     5 1
     9     1    22 ar
    10     5     6 1
    11    16    17 ar
    12    22    21 ar
    13     6     7 1
    14    17    21 ar
    15    17    18 1
    16    20    18 2
    17     7    12 2
    18     7     8 1
    19    18    19 1
    20     8     9 1
    21     8    11 1
    22    10     9 1
    23    10    23 1
    24    23    29 ar
    25    23    24 ar
    26    29    28 ar
    27    24    25 ar
    28    28    26 ar
    29    25    26 ar
    30    26    27 1
    31     2    30 1
    32     2    31 1
    33     3    32 1
    34     5    33 1
    35     6    34 1
    36     8    35 1
    37     9    36 1
    38     9    37 1
    39    10    38 1
    40    10    39 1
    41    11    40 1
    42    11    41 1
    43    13    42 1
    44    13    43 1
    45    13    44 1
    46    15    45 1
    47    16    46 1
    48    19    47 1
    49    19    48 1
    50    20    49 1
    51    21    50 1
    52    22    51 1
    53    24    52 1
    54    25    53 1
    55    27    54 1
    56    28    55 1
    57    29    56 1
    58    57    11 1
    59    58    19 1
@<TRIPOS>SUBSTRUCTURE
     1 BZY         1 TEMP              0 ****  ****    0 ROOT
