@<TRIPOS>MOLECULE
BZY
   58    59     1     0     0
SMALL
bcc


@<TRIPOS>ATOM
      1 C1           0.0000     0.0000     0.0000 ca         1 BZY      -0.077300
      2 C2          -0.7500     0.0060    -1.3070 c3         1 BZY       0.101300
      3 N3          -0.9870     1.3890    -1.7270 ns         1 BZY      -0.177900
      4 C4          -1.6450     1.6400    -2.8760 c          1 BZY       0.567100
      5 C5          -1.8900     3.0630    -3.3090 c3         1 BZY      -0.065300
      6 N6          -2.6190     3.0690    -4.5790 ns         1 BZY      -0.096900
      7 C7          -2.5220     4.1280    -5.4070 c          1 BZY       0.551100
      8 C8          -3.2730     4.1340    -6.7140 c3         1 BZY      -0.155500
      9 C9          -4.7330     4.5130    -6.4620 c3         1 BZY      -0.038400
     10 C10         -5.5230     4.3980    -7.7670 c3         1 BZY       0.039900
     11 N11         -2.6630     5.1120    -7.6250 nz         1 BZY       0.092400
     12 O12         -1.8310     5.0760    -5.1010 o          1 BZY      -0.650100
     13 C13         -2.7160     3.7860    -2.2440 c3         1 BZY      -0.006100
     14 O14         -2.0420     0.7220    -3.5610 o          1 BZY      -0.636100
     15 C15          1.3840     0.0000     0.0000 ca         1 BZY      -0.051500
     16 C16          2.0760     0.0000     1.1930 ca         1 BZY      -0.071000
     17 C17          1.3790     0.0010     2.4010 ca         1 BZY      -0.212900
     18 C18          2.1160     0.0020     3.6850 ce         1 BZY       0.201800
     19 N19          1.4250     0.0030     4.8770 nz         1 BZY       0.190400
     20 N20          3.4190     0.0020     3.6880 n2         1 BZY      -0.465100
     21 C21         -0.0160     0.0020     2.3950 ca         1 BZY      -0.071000
     22 C22         -0.6970     0.0010     1.1950 ca         1 BZY      -0.051500
     23 C23         -6.9620     4.7710    -7.5190 ca         1 BZY      -0.159300
     24 C24         -7.8720     3.8000    -7.1460 ca         1 BZY      -0.068500
     25 C25         -9.1920     4.1410    -6.9170 ca         1 BZY      -0.124500
     26 C26         -9.6020     5.4570    -7.0620 ca         1 BZY       0.161100
     27 O27        -10.8990     5.7950    -6.8370 oh         1 BZY      -0.493100
     28 C28         -8.6860     6.4310    -7.4360 ca         1 BZY      -0.124500
     29 C29         -7.3680     6.0860    -7.6580 ca         1 BZY      -0.068500
     30 H1          -0.1650    -0.5060    -2.0610 h1         1 BZY       0.046200
     31 H2          -1.7000    -0.5010    -1.1800 h1         1 BZY       0.046200
     32 H3          -0.6370     2.1460    -1.1750 hn         1 BZY       0.181500
     33 H4          -0.9410     3.5700    -3.4360 h1         1 BZY       0.072700
     34 H5          -3.1790     2.2800    -4.8390 hn         1 BZY       0.206500
     35 H6          -3.2280     3.1480    -7.1610 hx         1 BZY       0.097700
     36 H7          -4.7840     5.5320    -6.0980 hc         1 BZY       0.058700
     37 H8          -5.1570     3.8440    -5.7230 hc         1 BZY       0.058700
     38 H9          -5.4720     3.3790    -8.1320 hc         1 BZY       0.012700
     39 H10         -5.0990     5.0670    -8.5060 hc         1 BZY       0.012700
     40 H11         -2.9890     6.0300    -7.3940 hn         1 BZY       0.232467
     41 H12         -2.9190     4.8950    -8.5680 hn         1 BZY       0.232467
     42 H14         -3.3660     4.5100    -2.7200 hc         1 BZY       0.022700
     43 H15         -3.3150     3.0650    -1.7010 hc         1 BZY       0.022700
     44 H16         -2.0520     4.2950    -1.5560 hc         1 BZY       0.022700
     45 H17          1.9250    -0.0010    -0.9390 ha         1 BZY       0.131000
     46 H18          3.1600     0.0000     1.1920 ha         1 BZY       0.104500
     47 H19          2.0740     0.0030     5.6390 hn         1 BZY       0.223800
     48 H20          0.8500     0.8210     4.9290 hn         1 BZY       0.223800
     49 H21          3.9230     0.0020     2.8230 hn         1 BZY       0.380400
     50 H22         -0.5630     0.0020     3.3300 ha         1 BZY       0.104500
     51 H23         -1.7800     0.0010     1.1890 ha         1 BZY       0.131000
     52 H24         -7.5510     2.7720    -7.0330 ha         1 BZY       0.100000
     53 H25         -9.9050     3.3790    -6.6240 ha         1 BZY       0.128000
     54 H26        -11.3870     5.7210    -7.6400 ho         1 BZY       0.419000
     55 H27         -9.0040     7.4600    -7.5480 ha         1 BZY       0.128000
     56 H28         -6.6520     6.8450    -7.9500 ha         1 BZY       0.100000
     57 H113        -1.6670     5.0710    -7.5400 hn         1 BZY       0.232467
     58 H193         0.8470    -0.8120     4.9280 hn         1 BZY       0.223800
@<TRIPOS>BOND
     1     1     2 1   
     2     1    15 ar  
     3     1    22 ar  
     4     2     3 1   
     5     2    30 1   
     6     2    31 1   
     7     3     4 1   
     8     3    32 1   
     9     4     5 1   
    10     4    14 2   
    11     5     6 1   
    12     5    13 1   
    13     5    33 1   
    14     6     7 1   
    15     6    34 1   
    16     7     8 1   
    17     7    12 2   
    18     8     9 1   
    19     8    11 1   
    20     8    35 1   
    21     9    10 1   
    22     9    36 1   
    23     9    37 1   
    24    10    23 1   
    25    10    38 1   
    26    10    39 1   
    27    11    40 1   
    28    11    41 1   
    29    11    57 1   
    30    13    42 1   
    31    13    43 1   
    32    13    44 1   
    33    15    16 ar  
    34    15    45 1   
    35    16    17 ar  
    36    16    46 1   
    37    17    18 1   
    38    17    21 ar  
    39    18    19 1   
    40    18    20 2   
    41    19    47 1   
    42    19    48 1   
    43    19    58 1   
    44    20    49 1   
    45    21    22 ar  
    46    21    50 1   
    47    22    51 1   
    48    23    24 ar  
    49    23    29 ar  
    50    24    25 ar  
    51    24    52 1   
    52    25    26 ar  
    53    25    53 1   
    54    26    27 1   
    55    26    28 ar  
    56    27    54 1   
    57    28    29 ar  
    58    28    55 1   
    59    29    56 1   
@<TRIPOS>SUBSTRUCTURE
     1 BZY         1 TEMP              0 ****  ****    0 ROOT
