@<TRIPOS>MOLECULE
molecule
   20    20     1     0     0
SMALL
bcc


@<TRIPOS>ATOM
      1 C1'          0.0000     0.0000     0.0000 ca         1 BZZ      -0.115500
      2 C2'          1.3950     0.0000     0.0000 ca         1 BZZ      -0.099500
      3 C3'          2.0920     0.0000     1.2090 ca         1 BZZ      -0.139300
      4 C4'          1.3940    -0.0000     2.4160 ca         1 BZZ      -0.099500
      5 C5'         -0.0010    -0.0000     2.4160 ca         1 BZZ      -0.115500
      6 C6'         -0.6970    -0.0000     1.2070 ca         1 BZZ      -0.084000
      7 NX1          4.1310    -1.3330     1.2080 n7         1 BZZ      -0.543000
      8 NX2          5.5610    -1.2470     1.2330 nz         1 BZZ      -0.610400
      9 C1           3.5830    -0.0000     1.2080 c3         1 BZZ       0.162100
     10 H1'         -0.5420    -0.0000    -0.9380 ha         1 BZZ       0.154500
     11 H2'          1.9360     0.0000    -0.9380 ha         1 BZZ       0.133000
     12 H4'          1.9350    -0.0000     3.3540 ha         1 BZZ       0.133000
     13 H5'         -0.5430    -0.0010     3.3540 ha         1 BZZ       0.154500
     14 H6'         -1.7810    -0.0000     1.2070 ha         1 BZZ       0.155000
     15 HNX1         3.8400    -1.8130     0.3800 hn         1 BZZ       0.414800
     16 HX21         5.8520    -0.7690     2.0630 hn         1 BZZ       0.457800
     17 HX22         5.9510    -2.1690     1.2250 hn         1 BZZ       0.457800
     18 H11          3.9340     0.5230     0.3270 h1         1 BZZ       0.064200
     19 H12          3.9340     0.5230     2.0900 h1         1 BZZ       0.064200
     20 HX23         5.8770    -0.7200     0.4430 hn         1 BZZ       0.457800
@<TRIPOS>BOND
     1     1     2 ar
     2     1     6 ar
     3     1    10 1
     4     2     3 ar
     5     2    11 1
     6     3     4 ar
     7     3     9 1
     8     4     5 ar
     9     4    12 1
    10     5     6 ar
    11     5    13 1
    12     6    14 1
    13     7     8 1
    14     7     9 1
    15     7    15 1
    16     8    16 1
    17     8    17 1
    18     9    18 1
    19     9    19 1
    20    20     8 1
@<TRIPOS>SUBSTRUCTURE
     1 BZZ         1 TEMP              0 ****  ****    0 ROOT
