@<TRIPOS>MOLECULE
400
   66    70     1     0     0
SMALL
bcc


@<TRIPOS>ATOM
      1 C1           0.0000     0.0000     0.0000 cc         1 400       0.389200
      2 N2           1.3070     0.0000     0.0000 nd         1 400      -0.586800
      3 N3           1.7680     0.0000     1.3190 na         1 400       0.454400
      4 C4          -0.4520     0.0010     1.3420 cc         1 400      -0.157400
      5 C5           0.6620     0.0010     2.1610 cd         1 400      -0.220300
      6 C6           0.3510     0.0020     3.5170 cd         1 400      -0.016000
      7 C7          -0.9730     0.0020     3.8050 cc         1 400      -0.035700
      8 S8          -1.9140     0.0030     2.3210 ss         1 400      -0.257800
      9 N9          -0.8170     0.0050    -1.1380 ns         1 400      -0.095400
     10 C10         -0.2620     0.0100    -2.3660 c          1 400       0.573700
     11 C11         -1.1220     0.0150    -3.5640 ca         1 400      -0.192600
     12 O12          0.9490     0.0090    -2.4870 o          1 400      -0.589100
     13 C13         -0.5480     0.0200    -4.8390 ca         1 400      -0.028000
     14 C14         -1.3540     0.0250    -5.9550 ca         1 400      -0.163000
     15 C15         -2.7390     0.0260    -5.8160 ca         1 400       0.050600
     16 C16         -3.3130     0.0220    -4.5470 ca         1 400      -0.163000
     17 C17         -2.5130     0.0110    -3.4280 ca         1 400      -0.028000
     18 N18         -3.5490     0.0320    -6.9450 nh         1 400      -0.358000
     19 C19         -4.9710     0.0320    -6.5730 c3         1 400       0.134800
     20 C20         -5.8280    -0.0420    -7.8390 c3         1 400       0.152800
     21 N21         -5.5140     1.1020    -8.7070 n3         1 400      -0.549600
     22 C22         -4.0920     1.1020    -9.0790 c3         1 400       0.152800
     23 C23         -3.2350     1.1750    -7.8130 c3         1 400       0.134800
     24 C24         -6.3700     1.1080    -9.9000 c3         1 400       0.190100
     25 C25         -1.5390     0.0020     5.1580 c          1 400       0.632700
     26 O26         -0.8010     0.0030     6.1260 o          1 400      -0.647100
     27 N27         -2.8760     0.0030     5.3290 ns         1 400      -0.186900
     28 C28         -3.4420     0.0040     6.6810 c3         1 400       0.078000
     29 C29         -4.8230     0.6040     6.6470 ca         1 400      -0.109300
     30 C30         -3.5220    -1.4330     7.2000 c3         1 400      -0.037400
     31 C31         -5.2340     1.4490     7.6620 ca         1 400      -0.094000
     32 C32         -6.5020     1.9990     7.6310 ca         1 400      -0.095000
     33 C33         -7.3580     1.7070     6.5860 ca         1 400      -0.097000
     34 C34         -6.9460     0.8630     5.5710 ca         1 400      -0.095000
     35 C35         -5.6770     0.3160     5.5990 ca         1 400      -0.094000
     36 C36         -2.1090    -2.0010     7.3520 c3         1 400      -0.018100
     37 H9          -1.8130     0.0070    -1.0390 hn         1 400       0.178500
     38 H3           2.7260    -0.0000     1.6070 hn         1 400       0.154700
     39 H6           1.1130     0.0010     4.2880 ha         1 400       0.137000
     40 H13          0.5290     0.0190    -4.9480 ha         1 400       0.112000
     41 H17         -2.9610     0.0070    -2.4420 ha         1 400       0.112000
     42 H14         -0.9090     0.0290    -6.9430 ha         1 400       0.122500
     43 H16         -4.3920     0.0210    -4.4420 ha         1 400       0.122500
     44 H191        -5.1800    -0.8260    -5.9460 h1         1 400       0.025950
     45 H192        -5.2020     0.9440    -6.0350 h1         1 400       0.025950
     46 H231        -3.4490     2.0970    -7.2860 h1         1 400       0.025950
     47 H232        -2.1870     1.1440    -8.0850 h1         1 400       0.025950
     48 H201        -5.6130    -0.9640    -8.3660 h1         1 400       0.016200
     49 H202        -6.8760    -0.0100    -7.5670 h1         1 400       0.016200
     50 H221        -3.8600     0.1920    -9.6180 h1         1 400       0.016200
     51 H222        -3.8840     1.9620    -9.7040 h1         1 400       0.016200
     52 H241        -7.4100     1.1420    -9.5990 h1         1 400       0.001367
     53 H242        -6.1400     1.9770   -10.5050 h1         1 400       0.001367
     54 H243        -6.1910     0.2090   -10.4780 h1         1 400       0.001367
     55 H27         -3.4820     0.0390     4.5340 hn         1 400       0.188500
     56 H28         -2.8090     0.5900     7.3360 h1         1 400       0.061700
     57 H301        -4.0820    -2.0400     6.4990 hc         1 400       0.018700
     58 H302        -4.0200    -1.4420     8.1620 hc         1 400       0.018700
     59 H31         -4.5640     1.6780     8.4820 ha         1 400       0.108000
     60 H35         -5.3550    -0.3450     4.8040 ha         1 400       0.108000
     61 H361        -2.1360    -2.8680     8.0010 hc         1 400       0.015033
     62 H362        -1.4610    -1.2470     7.7830 hc         1 400       0.015033
     63 H363        -1.7300    -2.2900     6.3800 hc         1 400       0.015033
     64 H32         -6.8250     2.6600     8.4260 ha         1 400       0.104500
     65 H33         -8.3520     2.1370     6.5620 ha         1 400       0.104000
     66 H34         -7.6160     0.6360     4.7510 ha         1 400       0.104500
@<TRIPOS>BOND
     1     1     2 2   
     2     1     4 1   
     3     1     9 1   
     4     2     3 1   
     5     3     5 1   
     6     3    38 1   
     7     4     5 2   
     8     4     8 1   
     9     5     6 1   
    10     6     7 2   
    11     6    39 1   
    12     7     8 1   
    13     7    25 1   
    14     9    10 1   
    15     9    37 1   
    16    10    11 1   
    17    10    12 2   
    18    11    13 ar  
    19    11    17 ar  
    20    13    14 ar  
    21    13    40 1   
    22    14    15 ar  
    23    14    42 1   
    24    15    16 ar  
    25    15    18 1   
    26    16    17 ar  
    27    16    43 1   
    28    17    41 1   
    29    18    19 1   
    30    18    23 1   
    31    19    20 1   
    32    19    44 1   
    33    19    45 1   
    34    20    21 1   
    35    20    48 1   
    36    20    49 1   
    37    21    22 1   
    38    21    24 1   
    39    22    23 1   
    40    22    50 1   
    41    22    51 1   
    42    23    46 1   
    43    23    47 1   
    44    24    52 1   
    45    24    53 1   
    46    24    54 1   
    47    25    26 2   
    48    25    27 1   
    49    27    28 1   
    50    27    55 1   
    51    28    29 1   
    52    28    30 1   
    53    28    56 1   
    54    29    31 ar  
    55    29    35 ar  
    56    30    36 1   
    57    30    57 1   
    58    30    58 1   
    59    31    32 ar  
    60    31    59 1   
    61    32    33 ar  
    62    32    64 1   
    63    33    34 ar  
    64    33    65 1   
    65    34    35 ar  
    66    34    66 1   
    67    35    60 1   
    68    36    61 1   
    69    36    62 1   
    70    36    63 1   
@<TRIPOS>SUBSTRUCTURE
     1 400         1 TEMP              0 ****  ****    0 ROOT
