@<TRIPOS>MOLECULE
401
   50    51     1     0     0
SMALL
bcc


@<TRIPOS>ATOM
      1 O22          0.0000     0.0000     0.0000 o          1 401      -0.893800
      2 O23          1.9470    -0.0130    -1.0470 o          1 401      -0.893800
      3 C1           1.3420     0.0000     0.0000 c          1 401       0.979600
      4 C2           2.0960     0.0000     1.3050 c3         1 401      -0.158700
      5 C3           3.6000    -0.0000     1.0260 c3         1 401      -0.005400
      6 C4           3.9910    -1.3070     0.3330 c3         1 401       0.006900
      7 C5           1.7260     1.2490     2.1080 c3         1 401       0.057900
      8 C6           0.2690     1.1880     2.4880 ca         1 401      -0.090300
      9 C7          -0.1090     0.5940     3.6770 ca         1 401      -0.058000
     10 C8          -1.4440     0.5380     4.0290 ca         1 401      -0.205300
     11 C9          -2.4050     1.0780     3.1870 ca         1 401       0.140100
     12 C10         -2.0230     1.6730     1.9940 ca         1 401      -0.221000
     13 C11         -0.6870     1.7320     1.6490 ca         1 401       0.062000
     14 O30         -3.7190     1.0230     3.5300 os         1 401      -0.324900
     15 C21         -4.6530     1.5980     2.6140 c3         1 401       0.242700
     16 C12         -1.8560    -0.1100     5.3250 c3         1 401       0.128300
     17 N24         -2.2190     0.9250     6.2960 ns         1 401      -0.164900
     18 C13         -2.6210     0.5780     7.5340 c          1 401       0.569700
     19 O25         -2.6830    -0.5960     7.8450 o          1 401      -0.642100
     20 C14         -2.9850     1.6220     8.5130 ca         1 401      -0.136600
     21 C15         -3.4030     1.2650     9.7980 ca         1 401       0.170900
     22 C16         -3.7440     2.2490    10.7080 ca         1 401      -0.098000
     23 C17         -3.6700     3.5820    10.3480 ca         1 401      -0.179300
     24 C18         -3.2570     3.9410     9.0770 ca         1 401      -0.068000
     25 C19         -2.9090     2.9710     8.1610 ca         1 401      -0.067000
     26 C20         -4.0420     4.6490    11.3450 c3         1 401       0.638200
     27 F26         -3.4760    -0.0380    10.1500 f          1 401      -0.103900
     28 F27         -2.9070     5.0240    12.0720 f          1 401      -0.208300
     29 F28         -4.5500     5.7620    10.6670 f          1 401      -0.208300
     30 F29         -5.0140     4.1520    12.2200 f          1 401      -0.208300
     31 H2           1.8340    -0.8850     1.8730 hc         1 401       0.028700
     32 H3           4.1410     0.0890     1.9600 hc         1 401      -0.003800
     33 H3A          3.8480     0.8360     0.3840 hc         1 401      -0.003800
     34 H4           3.1950    -2.0320     0.4550 hc         1 401      -0.001967
     35 H4A          4.1530    -1.1220    -0.7220 hc         1 401      -0.001967
     36 H4B          4.9010    -1.6930     0.7770 hc         1 401      -0.001967
     37 H5           1.9050     2.1310     1.5060 hc         1 401      -0.001300
     38 H5A          2.3320     1.2940     3.0040 hc         1 401      -0.001300
     39 H7           0.6420     0.1720     4.3340 ha         1 401       0.098000
     40 H10         -2.7710     2.0980     1.3350 ha         1 401       0.111000
     41 H11         -0.3880     2.1970     0.7170 ha         1 401       0.129000
     42 H21         -4.4340     2.6510     2.4890 h1         1 401      -0.006633
     43 H21A        -5.6580     1.4820     3.0030 h1         1 401      -0.006633
     44 H21B        -4.5760     1.0960     1.6570 h1         1 401      -0.006633
     45 H12         -1.0320    -0.6970     5.7140 h1         1 401       0.029200
     46 H12A        -2.7080    -0.7560     5.1510 h1         1 401       0.029200
     47 HN24        -2.1360     1.8920     6.0500 hn         1 401       0.177500
     48 H16         -4.0680     1.9750    11.7050 ha         1 401       0.131000
     49 H18         -3.2000     4.9870     8.8030 ha         1 401       0.120000
     50 H19         -2.5860     3.2550     7.1670 ha         1 401       0.123000
@<TRIPOS>BOND
     1     1     3 1   
     2     2     3 1   
     3     3     4 1   
     4     4     5 1   
     5     4     7 1   
     6     4    31 1   
     7     5     6 1   
     8     5    32 1   
     9     5    33 1   
    10     6    34 1   
    11     6    35 1   
    12     6    36 1   
    13     7     8 1   
    14     7    37 1   
    15     7    38 1   
    16     8     9 ar  
    17     8    13 ar  
    18     9    10 ar  
    19     9    39 1   
    20    10    11 ar  
    21    10    16 1   
    22    11    12 ar  
    23    11    14 1   
    24    12    13 ar  
    25    12    40 1   
    26    13    41 1   
    27    14    15 1   
    28    15    42 1   
    29    15    43 1   
    30    15    44 1   
    31    16    17 1   
    32    16    45 1   
    33    16    46 1   
    34    17    18 1   
    35    17    47 1   
    36    18    19 2   
    37    18    20 1   
    38    20    21 ar  
    39    20    25 ar  
    40    21    22 ar  
    41    21    27 1   
    42    22    23 ar  
    43    22    48 1   
    44    23    24 ar  
    45    23    26 1   
    46    24    25 ar  
    47    24    49 1   
    48    25    50 1   
    49    26    28 1   
    50    26    29 1   
    51    26    30 1   
@<TRIPOS>SUBSTRUCTURE
     1 401         1 TEMP              0 ****  ****    0 ROOT
