@<TRIPOS>MOLECULE
molecule
   50    51     1     0     0
SMALL
bcc


@<TRIPOS>ATOM
      1 O22          0.0000     0.0000     0.0000 o          1 401      -0.845300
      2 O23          1.9470    -0.0130    -1.0470 o          1 401      -0.845300
      3 C1           1.3420     0.0000     0.0000 c          1 401       0.891600
      4 C2           2.0960     0.0000     1.3050 c3         1 401      -0.171700
      5 C3           3.6000    -0.0000     1.0260 c3         1 401      -0.058400
      6 C4           3.9910    -1.3070     0.3330 c3         1 401      -0.074100
      7 C5           1.7260     1.2490     2.1080 c3         1 401      -0.010100
      8 C6           0.2690     1.1880     2.4880 ca         1 401      -0.084300
      9 C7          -0.1090     0.5940     3.6770 ca         1 401      -0.085000
     10 C8          -1.4440     0.5380     4.0290 ca         1 401      -0.184300
     11 C9          -2.4050     1.0780     3.1870 ca         1 401       0.132100
     12 C10         -2.0230     1.6730     1.9940 ca         1 401      -0.231000
     13 C11         -0.6870     1.7320     1.6490 ca         1 401       0.026000
     14 O30         -3.7190     1.0230     3.5300 os         1 401      -0.343900
     15 C21         -4.6530     1.5980     2.6140 c3         1 401       0.131700
     16 C12         -1.8560    -0.1100     5.3250 c3         1 401       0.178300
     17 N24         -2.2190     0.9250     6.2960 ns         1 401      -0.557900
     18 C13         -2.6210     0.5780     7.5340 c          1 401       0.656700
     19 O25         -2.6830    -0.5960     7.8450 o          1 401      -0.600100
     20 C14         -2.9850     1.6220     8.5130 ca         1 401      -0.146600
     21 C15         -3.4030     1.2650     9.7980 ca         1 401       0.185900
     22 C16         -3.7440     2.2490    10.7080 ca         1 401      -0.142000
     23 C17         -3.6700     3.5820    10.3480 ca         1 401      -0.146300
     24 C18         -3.2570     3.9410     9.0770 ca         1 401      -0.111000
     25 C19         -2.9090     2.9710     8.1610 ca         1 401      -0.085000
     26 C20         -4.0420     4.6490    11.3450 c3         1 401       0.673200
     27 F26         -3.4760    -0.0380    10.1500 f          1 401      -0.102900
     28 F27         -2.9070     5.0240    12.0720 f          1 401      -0.223300
     29 F28         -4.5500     5.7620    10.6670 f          1 401      -0.223300
     30 F29         -5.0140     4.1520    12.2200 f          1 401      -0.223300
     31 H2           1.8340    -0.8850     1.8730 hc         1 401       0.047700
     32 H3           4.1410     0.0890     1.9600 hc         1 401       0.019700
     33 H3A          3.8480     0.8360     0.3840 hc         1 401       0.019700
     34 H4           3.1950    -2.0320     0.4550 hc         1 401       0.025367
     35 H4A          4.1530    -1.1220    -0.7220 hc         1 401       0.025367
     36 H4B          4.9010    -1.6930     0.7770 hc         1 401       0.025367
     37 H5           1.9050     2.1310     1.5060 hc         1 401       0.026700
     38 H5A          2.3320     1.2940     3.0040 hc         1 401       0.026700
     39 H7           0.6420     0.1720     4.3340 ha         1 401       0.123000
     40 H10         -2.7710     2.0980     1.3350 ha         1 401       0.125000
     41 H11         -0.3880     2.1970     0.7170 ha         1 401       0.158000
     42 H21         -4.4340     2.6510     2.4890 h1         1 401       0.034700
     43 H21A        -5.6580     1.4820     3.0030 h1         1 401       0.034700
     44 H21B        -4.5760     1.0960     1.6570 h1         1 401       0.034700
     45 H12         -1.0320    -0.6970     5.7140 h1         1 401       0.057700
     46 H12A        -2.7080    -0.7560     5.1510 h1         1 401       0.057700
     47 HN24        -2.1360     1.8920     6.0500 hn         1 401       0.314500
     48 H16         -4.0680     1.9750    11.7050 ha         1 401       0.159000
     49 H18         -3.2000     4.9870     8.8030 ha         1 401       0.150000
     50 H19         -2.5860     3.2550     7.1670 ha         1 401       0.151000
@<TRIPOS>BOND
     1     1     3 1
     2     2     3 1
     3     3     4 1
     4     4     5 1
     5     4     7 1
     6     5     6 1
     7     7     8 1
     8     8     9 ar
     9     8    13 ar
    10     9    10 ar
    11    10    11 ar
    12    10    16 1
    13    11    12 ar
    14    11    14 1
    15    12    13 ar
    16    14    15 1
    17    16    17 1
    18    17    18 1
    19    18    19 2
    20    18    20 1
    21    20    21 ar
    22    20    25 ar
    23    21    22 ar
    24    21    27 1
    25    22    23 ar
    26    23    24 ar
    27    23    26 1
    28    24    25 ar
    29    26    28 1
    30    26    29 1
    31    26    30 1
    32     4    31 1
    33     5    32 1
    34     5    33 1
    35     6    34 1
    36     6    35 1
    37     6    36 1
    38     7    37 1
    39     7    38 1
    40     9    39 1
    41    12    40 1
    42    13    41 1
    43    15    42 1
    44    15    43 1
    45    15    44 1
    46    16    45 1
    47    16    46 1
    48    17    47 1
    49    22    48 1
    50    24    49 1
    51    25    50 1
@<TRIPOS>SUBSTRUCTURE
     1 401         1 TEMP              0 ****  ****    0 ROOT
