@<TRIPOS>MOLECULE
403
   53    55     1     0     0
SMALL
bcc


@<TRIPOS>ATOM
      1 C1           1.5060     0.0000     0.0000 c3         1 403       0.123100
      2 C2           0.0000     0.0000     0.0000 c          1 403       0.561100
      3 C3           2.0170     0.0000     1.4430 c3         1 403       0.114100
      4 N4          -0.6740     1.1030     0.3870 n          1 403      -0.172800
      5 N5          -1.8990     2.9430     2.0830 nh         1 403      -0.391000
      6 C6           3.5230    -0.0590     1.4420 c          1 403       0.539100
      7 S8           8.8050     2.7100     1.6020 ss         1 403      -0.274800
      8 C9           7.7670     2.1250     0.3080 cc         1 403       0.006600
      9 O10         -0.6070    -0.9900    -0.3480 o          1 403      -0.598100
     10 C11         -2.1400     1.0880     0.5060 c3         1 403       0.049500
     11 C12          0.0380     2.3480     0.7080 c3         1 403       0.049500
     12 C13         -0.4330     2.8390     2.0810 c3         1 403       0.129800
     13 C14         -2.5210     1.6310     1.8870 c3         1 403       0.129800
     14 C15         10.2410     2.2230     0.7120 cc         1 403       0.012900
     15 O17          4.0910    -1.0280     1.9010 o          1 403      -0.605100
     16 C18          8.5180     1.6220    -0.6730 cd         1 403      -0.119000
     17 C19          9.8820     1.6750    -0.4500 cd         1 403      -0.125000
     18 N20          4.2370     0.9650     0.9350 ns         1 403      -0.209900
     19 O21          1.9820    -1.1680    -0.6730 oh         1 403      -0.527800
     20 O22          1.4950    -1.1370     2.1320 oh         1 403      -0.532800
     21 C23          6.2620     2.1850     0.3070 c3         1 403       0.060900
     22 C25          5.7010     0.9070     0.9350 c3         1 403       0.047000
     23 H1           1.8680     0.8840    -0.5110 h1         1 403       0.004700
     24 H3           1.6910     0.9050     1.9410 h1         1 403       0.013700
     25 C151        -2.3560     3.5420     3.2600 ca         1 403       0.002600
     26 H11         -2.5720     1.7160    -0.2630 h1         1 403       0.034450
     27 H11A        -2.5030     0.0730     0.4020 h1         1 403       0.034450
     28 H12          1.1050     2.1590     0.7360 h1         1 403       0.034450
     29 H12A        -0.1850     3.0970    -0.0420 h1         1 403       0.034450
     30 H13         -0.0020     3.8130     2.2820 h1         1 403       0.021700
     31 H13A        -0.1200     2.1350     2.8420 h1         1 403       0.021700
     32 H14         -3.5980     1.7310     1.9500 h1         1 403       0.021700
     33 H14A        -2.1710     0.9480     2.6520 h1         1 403       0.021700
     34 H15         11.2610     2.3490     1.0550 h4         1 403       0.149000
     35 H18          8.0920     1.2020    -1.5760 ha         1 403       0.123000
     36 H19         10.6050     1.3010    -1.1650 ha         1 403       0.122000
     37 HN20         3.7700     1.7930     0.6210 hn         1 403       0.167500
     38 HO21         1.9880    -1.0140    -1.6030 ho         1 403       0.388000
     39 HO22         1.7400    -1.0930     3.0420 ho         1 403       0.395000
     40 H23          5.9050     2.2740    -0.7120 hc         1 403       0.022200
     41 H23A         5.9340     3.0430     0.8810 hc         1 403       0.022200
     42 H25          6.0590     0.8180     1.9540 h1         1 403       0.035700
     43 H25A         6.0290     0.0490     0.3610 h1         1 403       0.035700
     44 C16         -3.2620     4.7270     5.5910 ca         1 403      -0.087000
     45 C17         -2.5320     3.5550     5.6510 ca         1 403      -0.091000
     46 C181        -2.0790     2.9600     4.4890 ca         1 403      -0.125000
     47 C191        -3.0860     4.7230     3.2030 ca         1 403      -0.013600
     48 C20         -3.5360     5.3120     4.3680 ca         1 403      -0.097000
     49 Cl1         -3.4310     5.4580     1.6680 cl         1 403      -0.004400
     50 H21         -3.6160     5.1910     6.5040 ha         1 403       0.108000
     51 H22         -2.3170     3.1000     6.6110 ha         1 403       0.107000
     52 H231        -1.5070     2.0410     4.5380 ha         1 403       0.114000
     53 H24         -4.1070     6.2320     4.3240 ha         1 403       0.117000
@<TRIPOS>BOND
     1     1     2 1   
     2     1     3 1   
     3     1    19 1   
     4     1    23 1   
     5     2     4 1   
     6     2     9 2   
     7     3     6 1   
     8     3    20 1   
     9     3    24 1   
    10     4    10 1   
    11     4    11 1   
    12     5    12 1   
    13     5    13 1   
    14     5    25 1   
    15     6    15 2   
    16     6    18 1   
    17     7     8 1   
    18     7    14 1   
    19     8    16 2   
    20     8    21 1   
    21    10    13 1   
    22    10    26 1   
    23    10    27 1   
    24    11    12 1   
    25    11    28 1   
    26    11    29 1   
    27    12    30 1   
    28    12    31 1   
    29    13    32 1   
    30    13    33 1   
    31    14    17 2   
    32    14    34 1   
    33    16    17 1   
    34    16    35 1   
    35    17    36 1   
    36    18    22 1   
    37    18    37 1   
    38    19    38 1   
    39    20    39 1   
    40    21    22 1   
    41    21    40 1   
    42    21    41 1   
    43    22    42 1   
    44    22    43 1   
    45    25    46 ar  
    46    25    47 ar  
    47    44    45 ar  
    48    44    48 ar  
    49    44    50 1   
    50    45    46 ar  
    51    45    51 1   
    52    46    52 1   
    53    47    48 ar  
    54    47    49 1   
    55    48    53 1   
@<TRIPOS>SUBSTRUCTURE
     1 403         1 TEMP              0 ****  ****    0 ROOT
