@<TRIPOS>MOLECULE
404
   52    54     1     0     0
SMALL
bcc


@<TRIPOS>ATOM
      1 C1           0.0000     0.0000     0.0000 ca         1 404       0.591200
      2 C2           1.4020     0.0000     0.0000 ca         1 404      -0.539800
      3 C3           2.0730     0.0000     1.2350 ca         1 404       0.341000
      4 N4           1.3500    -0.0020     2.3630 nb         1 404      -0.694000
      5 C5           0.0310    -0.0020     2.3130 ca         1 404       0.739900
      6 N6          -0.6370     0.0050     1.1640 nb         1 404      -0.744000
      7 N7           2.3670     0.0010    -0.9740 na         1 404       0.435900
      8 N8           3.6180     0.0010    -0.3430 nc         1 404      -0.619100
      9 C9           3.4560     0.0000     0.9510 cd         1 404       0.266300
     10 C10          4.5620     0.0010     1.9740 c3         1 404      -0.043000
     11 C11          5.4270    -1.2470     1.7910 c3         1 404       0.004900
     12 C12          5.4250     1.2510     1.7920 c3         1 404       0.004900
     13 N13         -0.7060     0.0000    -1.1910 nu         1 404      -0.505900
     14 C14         -2.1710     0.0070    -1.1730 c3         1 404       0.223100
     15 C15         -2.6900     0.0070    -2.5880 ca         1 404      -0.129300
     16 C16         -2.9330    -1.1910    -3.2350 ca         1 404      -0.084000
     17 C17         -3.4080    -1.1910    -4.5330 ca         1 404      -0.102000
     18 C18         -3.6410     0.0050    -5.1840 ca         1 404      -0.091000
     19 C19         -3.3990     1.2030    -4.5370 ca         1 404      -0.102000
     20 C20         -2.9280     1.2040    -3.2370 ca         1 404      -0.084000
     21 N21         -0.6830    -0.0030     3.5010 nu         1 404      -0.485900
     22 C22         -2.1470    -0.0030     3.4750 c3         1 404       0.131500
     23 C23         -2.6560     1.4340     3.3420 c3         1 404      -0.037400
     24 C24         -2.2270     2.0030     1.9880 c3         1 404      -0.031100
     25 C25         -2.6800    -0.6140     4.7730 c3         1 404       0.212400
     26 O26         -2.3210     0.2220     5.8750 oh         1 404      -0.592800
     27 H10          4.1340    -0.0000     2.9690 hc         1 404       0.043700
     28 H11          6.0460    -1.1310     0.9090 hc         1 404       0.005367
     29 H11A         4.7890    -2.1150     1.6720 hc         1 404       0.005367
     30 H11B         6.0590    -1.3800     2.6610 hc         1 404       0.005367
     31 H12          4.8440     2.1300     2.0420 hc         1 404       0.005367
     32 H12A         6.2890     1.1910     2.4430 hc         1 404       0.005367
     33 H12B         5.7530     1.3160     0.7620 hc         1 404       0.005367
     34 HN13        -0.2150     0.0140    -2.0630 hn         1 404       0.291800
     35 H14         -2.5220     0.8940    -0.6600 h1         1 404       0.031700
     36 H14A        -2.5300    -0.8750    -0.6570 h1         1 404       0.031700
     37 H16         -2.7500    -2.1290    -2.7250 ha         1 404       0.108500
     38 H17         -3.5980    -2.1300    -5.0400 ha         1 404       0.105500
     39 H18         -4.0120     0.0050    -6.2020 ha         1 404       0.104000
     40 H19         -3.5830     2.1410    -5.0460 ha         1 404       0.105500
     41 H20         -2.7380     2.1420    -2.7310 ha         1 404       0.108500
     42 HN21        -0.1980    -0.0350     4.3760 hn         1 404       0.310800
     43 H22         -2.4930    -0.5890     2.6320 h1         1 404       0.052700
     44 H23         -2.2380     2.0400     4.1370 hc         1 404       0.022200
     45 H23A        -3.7370     1.4420     3.4110 hc         1 404       0.022200
     46 H24         -2.8150     2.8850     1.7640 hc         1 404       0.013033
     47 H24A        -2.3860     1.2590     1.2160 hc         1 404       0.013033
     48 H24B        -1.1770     2.2680     2.0230 hc         1 404       0.013033
     49 H25         -2.2500    -1.5990     4.9120 h1         1 404      -0.007800
     50 H25A        -3.7590    -0.6960     4.7180 h1         1 404      -0.007800
     51 HO26        -2.6590    -0.1490     6.6730 ho         1 404       0.392000
     52 HN7          2.2060     0.0010    -1.9620 hn         1 404       0.146700
@<TRIPOS>BOND
     1     1     2 ar  
     2     1     6 ar  
     3     1    13 1   
     4     2     3 ar  
     5     2     7 1   
     6     3     4 ar  
     7     3     9 1   
     8     4     5 ar  
     9     5     6 ar  
    10     5    21 1   
    11     7     8 1   
    12     7    52 1   
    13     8     9 2   
    14     9    10 1   
    15    10    11 1   
    16    10    12 1   
    17    10    27 1   
    18    11    28 1   
    19    11    29 1   
    20    11    30 1   
    21    12    31 1   
    22    12    32 1   
    23    12    33 1   
    24    13    14 1   
    25    13    34 1   
    26    14    15 1   
    27    14    35 1   
    28    14    36 1   
    29    15    16 ar  
    30    15    20 ar  
    31    16    17 ar  
    32    16    37 1   
    33    17    18 ar  
    34    17    38 1   
    35    18    19 ar  
    36    18    39 1   
    37    19    20 ar  
    38    19    40 1   
    39    20    41 1   
    40    21    22 1   
    41    21    42 1   
    42    22    23 1   
    43    22    25 1   
    44    22    43 1   
    45    23    24 1   
    46    23    44 1   
    47    23    45 1   
    48    24    46 1   
    49    24    47 1   
    50    24    48 1   
    51    25    26 1   
    52    25    49 1   
    53    25    50 1   
    54    26    51 1   
@<TRIPOS>SUBSTRUCTURE
     1 404         1 TEMP              0 ****  ****    0 ROOT
