@<TRIPOS>MOLECULE
molecule
   38    39     1     0     0
SMALL
bcc


@<TRIPOS>ATOM
      1 F2           0.0000     0.0000     0.0000 f          1 405      -0.215967
      2 C15          1.3990     0.0000     0.0000 c3         1 405       0.679200
      3 F            1.8650     0.0000     1.3200 f          1 405      -0.215967
      4 F1           1.8660    -1.1420    -0.6590 f          1 405      -0.215967
      5 C12          1.9010     1.2310    -0.7090 ca         1 405      -0.206300
      6 C11          2.1270     1.1980    -2.0730 ca         1 405      -0.035000
      7 C10          2.5870     2.3250    -2.7260 ca         1 405      -0.209000
      8 C13          2.1300     2.3940     0.0040 ca         1 405      -0.035000
      9 C14          2.5900     3.5240    -0.6440 ca         1 405      -0.209000
     10 C9           2.8220     3.4920    -2.0110 ca         1 405       0.141100
     11 O            3.2750     4.6010    -2.6520 os         1 405      -0.315900
     12 C6           3.3790     5.7990    -1.8780 c3         1 405       0.204400
     13 C7           4.8300     5.9980    -1.4380 c3         1 405      -0.129400
     14 C8           5.2350     4.8670    -0.4890 c3         1 405       0.082800
     15 N            6.6280     5.0580    -0.0660 nz         1 405      -0.809600
     16 C3           2.9420     6.9750    -2.7130 ca         1 405      -0.129300
     17 C2           2.2710     8.0300    -2.1230 ca         1 405      -0.105500
     18 C1           1.8710     9.1090    -2.8890 ca         1 405      -0.119500
     19 C4           3.2160     7.0010    -4.0680 ca         1 405      -0.105500
     20 C5           2.8150     8.0800    -4.8340 ca         1 405      -0.119500
     21 C            2.1400     9.1320    -4.2450 ca         1 405      -0.098000
     22 H1           1.9430     0.2870    -2.6300 ha         1 405       0.162000
     23 H2           2.7660     2.2980    -3.7940 ha         1 405       0.145500
     24 H3           1.9480     2.4190     1.0710 ha         1 405       0.162000
     25 H4           2.7710     4.4340    -0.0850 ha         1 405       0.145500
     26 H5           2.7430     5.7200    -1.0040 h1         1 405       0.073700
     27 H6           4.9250     6.9490    -0.9280 hc         1 405       0.079700
     28 H7           5.4760     5.9880    -2.3070 hc         1 405       0.079700
     29 H8           5.1390     3.9160    -0.9980 hx         1 405       0.118200
     30 H9           4.5890     4.8770     0.3810 hx         1 405       0.118200
     31 H10          6.7110     5.9240     0.4290 hn         1 405       0.456800
     32 H11          6.9010     4.3040     0.5330 hn         1 405       0.456800
     33 H13          2.0600     8.0120    -1.0610 ha         1 405       0.134000
     34 H14          1.3440     9.9350    -2.4270 ha         1 405       0.147000
     35 H15          3.7450     6.1750    -4.5300 ha         1 405       0.134000
     36 H16          3.0280     8.0990    -5.8960 ha         1 405       0.147000
     37 H17          1.8260     9.9780    -4.8450 ha         1 405       0.148000
     38 HN3          7.2210     5.0760    -0.8720 hn         1 405       0.456800
@<TRIPOS>BOND
     1    15    14 1   
     2     4     2 1   
     3    14    13 1   
     4     6     7 ar  
     5     6     5 ar  
     6     7    10 ar  
     7     2     5 1   
     8     2     1 1   
     9     2     3 1   
    10     5     8 ar  
    11    10    11 1   
    12    10     9 ar  
    13    11    12 1   
    14    13    12 1   
    15    12    16 1   
    16     8     9 ar  
    17    16    17 ar  
    18    16    19 ar  
    19    17    18 ar  
    20    19    20 ar  
    21    18    21 ar  
    22    20    21 ar  
    23     6    22 1   
    24     7    23 1   
    25     8    24 1   
    26     9    25 1   
    27    12    26 1   
    28    13    27 1   
    29    13    28 1   
    30    14    29 1   
    31    14    30 1   
    32    15    31 1   
    33    15    32 1   
    34    17    33 1   
    35    18    34 1   
    36    19    35 1   
    37    20    36 1   
    38    21    37 1   
    39    38    15 1   
@<TRIPOS>SUBSTRUCTURE
     1 405         1 TEMP              0 ****  ****    0 ROOT
