@<TRIPOS>MOLECULE
molecule
   31    31     1     0     0
SMALL
bcc


@<TRIPOS>ATOM
      1 C1           0.0000     0.0000     0.0000 c          1 407       0.668100
      2 C2           1.5080     0.0000     0.0000 c3         1 407       0.180500
      3 N3          -0.6730     1.0140     0.5780 ns         1 407      -0.471400
      4 O4          -0.6060    -0.9090    -0.5250 o          1 407      -0.560100
      5 O5          -2.0890     1.0170     0.5730 oh         1 407      -0.357100
      6 C6           2.0170     0.0000     1.4430 c3         1 407      -0.123100
      7 N7           1.9960    -1.1960    -0.6900 n7         1 407      -0.895100
      8 S8           3.3800    -1.1220    -1.5960 sy         1 407       1.427200
      9 O9           3.6010    -2.4330    -2.0990 o          1 407      -0.628300
     10 O10          3.2510     0.0200    -2.4320 o          1 407      -0.628300
     11 C18          4.7090    -0.7820    -0.4910 ca         1 407      -0.332500
     12 C19          5.0600     0.5260    -0.2140 ca         1 407      -0.011000
     13 C20          6.1010     0.7950     0.6530 ca         1 407      -0.144300
     14 C21          6.7950    -0.2480     1.2440 ca         1 407       0.184900
     15 C22          6.4440    -1.5580     0.9650 ca         1 407      -0.186000
     16 C23          5.3980    -1.8240     0.1020 ca         1 407      -0.006000
     17 F24          7.8150     0.0120     2.0900 f          1 407      -0.130900
     18 C25          6.4830     2.2210     0.9550 c3         1 407      -0.044800
     19 H1           1.8690     0.8850    -0.5110 h1         1 407       0.083700
     20 H2          -0.1730     1.7820     0.9790 hn         1 407       0.320500
     21 H3          -2.4030     1.8370     0.9170 ho         1 407       0.401000
     22 H4           1.1780    -0.0840     2.1220 hc         1 407       0.052033
     23 H5           2.5490     0.9230     1.6380 hc         1 407       0.052033
     24 H6           2.6860    -0.8400     1.5900 hc         1 407       0.052033
     25 H7           1.4830    -2.0530    -0.6290 hn         1 407       0.478800
     26 H8           4.5170     1.3420    -0.6760 ha         1 407       0.153000
     27 H9           6.9850    -2.3740     1.4280 ha         1 407       0.154000
     28 H10          5.1230    -2.8480    -0.1160 ha         1 407       0.159000
     29 H11          7.5210     2.3810     0.6890 hc         1 407       0.050700
     30 H12          5.8560     2.8920     0.3810 hc         1 407       0.050700
     31 H13          6.3480     2.4140     2.0120 hc         1 407       0.050700
@<TRIPOS>BOND
     1    10     8 2   
     2     6     2 1   
     3     9     8 2   
     4     2     7 1   
     5     2     1 1   
     6     8     7 1   
     7     8    11 1   
     8     3     1 1   
     9     3     5 1   
    10     1     4 2   
    11    11    16 ar  
    12    11    12 ar  
    13    16    15 ar  
    14    12    13 ar  
    15    15    14 ar  
    16    13    14 ar  
    17    13    18 1   
    18    14    17 1   
    19     2    19 1   
    20     3    20 1   
    21     5    21 1   
    22     6    22 1   
    23     6    23 1   
    24     6    24 1   
    25     7    25 1   
    26    12    26 1   
    27    15    27 1   
    28    16    28 1   
    29    18    29 1   
    30    18    30 1   
    31    18    31 1   
@<TRIPOS>SUBSTRUCTURE
     1 407         1 TEMP              0 ****  ****    0 ROOT
