@<TRIPOS>MOLECULE
molecule
   38    39     1     0     0
SMALL
bcc


@<TRIPOS>ATOM
      1 F            0.0000     0.0000     0.0000 f          1 408      -0.215967
      2 O            3.2760     4.6000    -2.6540 os         1 408      -0.311900
      3 N           -0.2030     4.5710    -5.1110 nz         1 408      -0.810600
      4 C11          3.1090     1.1960    -1.3820 ca         1 408      -0.036000
      5 C12          1.9010     1.2310    -0.7110 ca         1 408      -0.208300
      6 C13          1.1530     2.3940    -0.6890 ca         1 408      -0.036000
      7 C14          1.6110     3.5230    -1.3400 ca         1 408      -0.211000
      8 C15          1.3990     0.0000     0.0000 c3         1 408       0.679200
      9 F2           1.8660     0.0000     1.3180 f          1 408      -0.215967
     10 F1           1.8650    -1.1420    -0.6610 f          1 408      -0.215967
     11 C10          3.5740     2.3240    -2.0290 ca         1 408      -0.211000
     12 C9           2.8230     3.4900    -2.0140 ca         1 408       0.139100
     13 C2           2.4260     5.7480    -2.6410 c3         1 408       0.205400
     14 C1           1.5660     5.7610    -3.9080 c3         1 408      -0.132400
     15 C            0.6220     4.5580    -3.8950 c3         1 408       0.083800
     16 C3           3.2690     6.9970    -2.5950 ca         1 408      -0.127300
     17 C8           4.4280     7.0780    -3.3440 ca         1 408      -0.105000
     18 C7           5.2000     8.2220    -3.3010 ca         1 408      -0.119500
     19 C6           4.8150     9.2870    -2.5070 ca         1 408      -0.097000
     20 C5           3.6560     9.2070    -1.7580 ca         1 408      -0.119500
     21 C4           2.8800     8.0630    -1.8050 ca         1 408      -0.105000
     22 H1          -0.8020     3.7690    -5.1170 hn         1 408       0.456800
     23 H2           0.3900     4.5500    -5.9170 hn         1 408       0.456800
     24 H4           3.6940     0.2840    -1.3950 ha         1 408       0.162500
     25 H5           0.2070     2.4190    -0.1630 ha         1 408       0.162500
     26 H6           1.0250     4.4330    -1.3230 ha         1 408       0.148000
     27 H7           4.5200     2.2950    -2.5550 ha         1 408       0.148000
     28 H8           1.7840     5.7130    -1.7700 h1         1 408       0.071700
     29 H9           2.2070     5.7070    -4.7800 hc         1 408       0.079700
     30 H10          0.9860     6.6750    -3.9420 hc         1 408       0.079700
     31 H11         -0.0190     4.6110    -3.0230 hx         1 408       0.118700
     32 H12          1.2010     3.6430    -3.8620 hx         1 408       0.118700
     33 H13          4.7300     6.2440    -3.9660 ha         1 408       0.133500
     34 H14          6.1080     8.2850    -3.8880 ha         1 408       0.147500
     35 H15          5.4220    10.1830    -2.4720 ha         1 408       0.149000
     36 H16          3.3530    10.0420    -1.1380 ha         1 408       0.147500
     37 H17          1.9720     8.0000    -1.2180 ha         1 408       0.133500
     38 HN3         -0.7600     5.4020    -5.1280 hn         1 408       0.456800
@<TRIPOS>BOND
     1     3    15 1
     2     7     6 ar
     3     7    12 ar
     4     6     5 ar
     5    15    14 1
     6    10     8 1
     7     2    12 1
     8     2    13 1
     9    14    13 1
    10    12    11 ar
    11     5     8 1
    12     5     4 ar
    13     8     9 1
    14     8     1 1
    15    13    16 1
    16    17    16 ar
    17    17    18 ar
    18    11     4 ar
    19    16    21 ar
    20    18    19 ar
    21    21    20 ar
    22    19    20 ar
    23     3    22 1
    24     3    23 1
    25     4    24 1
    26     6    25 1
    27     7    26 1
    28    11    27 1
    29    13    28 1
    30    14    29 1
    31    14    30 1
    32    15    31 1
    33    15    32 1
    34    17    33 1
    35    18    34 1
    36    19    35 1
    37    20    36 1
    38    21    37 1
    39    38     3 1
@<TRIPOS>SUBSTRUCTURE
     1 408         1 TEMP              0 ****  ****    0 ROOT
