@<TRIPOS>MOLECULE
408
   38    39     1     0     0
SMALL
bcc


@<TRIPOS>ATOM
      1 F            0.0000     0.0000     0.0000 f          1 408      -0.201967
      2 O            3.2760     4.6000    -2.6540 os         1 408      -0.285900
      3 N           -0.2030     4.5710    -5.1110 nz         1 408       0.087400
      4 C11          3.1090     1.1960    -1.3820 ca         1 408       0.012000
      5 C12          1.9010     1.2310    -0.7110 ca         1 408      -0.239300
      6 C13          1.1530     2.3940    -0.6890 ca         1 408       0.012000
      7 C14          1.6110     3.5230    -1.3400 ca         1 408      -0.202000
      8 C15          1.3990     0.0000     0.0000 c3         1 408       0.646200
      9 F2           1.8660     0.0000     1.3180 f          1 408      -0.201967
     10 F1           1.8650    -1.1420    -0.6610 f          1 408      -0.201967
     11 C10          3.5740     2.3240    -2.0290 ca         1 408      -0.202000
     12 C9           2.8230     3.4900    -2.0140 ca         1 408       0.153100
     13 C2           2.4260     5.7480    -2.6410 c3         1 408       0.239400
     14 C1           1.5660     5.7610    -3.9080 c3         1 408      -0.063400
     15 C            0.6220     4.5580    -3.8950 c3         1 408      -0.077200
     16 C3           3.2690     6.9970    -2.5950 ca         1 408      -0.150300
     17 C8           4.4280     7.0780    -3.3440 ca         1 408      -0.078000
     18 C7           5.2000     8.2220    -3.3010 ca         1 408      -0.089000
     19 C6           4.8150     9.2870    -2.5070 ca         1 408      -0.066000
     20 C5           3.6560     9.2070    -1.7580 ca         1 408      -0.089000
     21 C4           2.8800     8.0630    -1.8050 ca         1 408      -0.078000
     22 H1          -0.8020     3.7690    -5.1170 hn         1 408       0.223133
     23 H2           0.3900     4.5500    -5.9170 hn         1 408       0.223133
     24 H4           3.6940     0.2840    -1.3950 ha         1 408       0.127500
     25 H5           0.2070     2.4190    -0.1630 ha         1 408       0.127500
     26 H6           1.0250     4.4330    -1.3230 ha         1 408       0.128500
     27 H7           4.5200     2.2950    -2.5550 ha         1 408       0.128500
     28 H8           1.7840     5.7130    -1.7700 h1         1 408       0.044700
     29 H9           2.2070     5.7070    -4.7800 hc         1 408       0.047200
     30 H10          0.9860     6.6750    -3.9420 hc         1 408       0.047200
     31 H11         -0.0190     4.6110    -3.0230 hx         1 408       0.097700
     32 H12          1.2010     3.6430    -3.8620 hx         1 408       0.097700
     33 H13          4.7300     6.2440    -3.9660 ha         1 408       0.106000
     34 H14          6.1080     8.2850    -3.8880 ha         1 408       0.116000
     35 H15          5.4220    10.1830    -2.4720 ha         1 408       0.116000
     36 H16          3.3530    10.0420    -1.1380 ha         1 408       0.116000
     37 H17          1.9720     8.0000    -1.2180 ha         1 408       0.106000
     38 HN3         -0.7600     5.4020    -5.1280 hn         1 408       0.223133
@<TRIPOS>BOND
     1     1     8 1   
     2     2    12 1   
     3     2    13 1   
     4     3    15 1   
     5     3    22 1   
     6     3    23 1   
     7     3    38 1   
     8     4     5 ar  
     9     4    11 ar  
    10     4    24 1   
    11     5     6 ar  
    12     5     8 1   
    13     6     7 ar  
    14     6    25 1   
    15     7    12 ar  
    16     7    26 1   
    17     8     9 1   
    18     8    10 1   
    19    11    12 ar  
    20    11    27 1   
    21    13    14 1   
    22    13    16 1   
    23    13    28 1   
    24    14    15 1   
    25    14    29 1   
    26    14    30 1   
    27    15    31 1   
    28    15    32 1   
    29    16    17 ar  
    30    16    21 ar  
    31    17    18 ar  
    32    17    33 1   
    33    18    19 ar  
    34    18    34 1   
    35    19    20 ar  
    36    19    35 1   
    37    20    21 ar  
    38    20    36 1   
    39    21    37 1   
@<TRIPOS>SUBSTRUCTURE
     1 408         1 TEMP              0 ****  ****    0 ROOT
