@<TRIPOS>MOLECULE
409
   48    50     1     0     0
SMALL
bcc


@<TRIPOS>ATOM
      1 O8           0.0000     0.0000     0.0000 o          1 409      -0.586100
      2 C4           1.2120     0.0000     0.0000 c          1 409       0.649100
      3 C3           1.9660     0.0000     1.3050 c3         1 409      -0.170500
      4 C2           2.4380    -1.4210     1.6210 c3         1 409       0.185100
      5 C1           3.0940    -1.4440     3.0030 c3         1 409      -0.048100
      6 O6           1.3190    -2.3090     1.6090 oh         1 409      -0.590800
      7 N7           1.0830     0.4730     2.3800 nz         1 409       0.093400
      8 N5           1.8870    -0.0040    -1.1670 ns         1 409      -0.278300
      9 S9           1.0590    -0.0110    -2.6020 sy         1 409       1.038900
     10 O10          2.0390     0.0200    -3.6300 o          1 409      -0.535800
     11 O11          0.0770    -1.0330    -2.4930 o          1 409      -0.535800
     12 C12          0.1820     1.5130    -2.7040 ca         1 409      -0.178500
     13 C13          0.7790     2.6160    -3.2900 ca         1 409      -0.002000
     14 C14          0.0960     3.8150    -3.3740 ca         1 409      -0.119000
     15 C15         -1.1860     3.9200    -2.8730 ca         1 409      -0.029000
     16 C16         -1.7930     2.8130    -2.2830 cp         1 409      -0.058000
     17 C17         -1.1020     1.6040    -2.2060 ca         1 409       0.007000
     18 C18         -3.1700     2.9180    -1.7430 cp         1 409      -0.029000
     19 C19         -3.7700     1.8000    -1.1460 ca         1 409      -0.121000
     20 C20         -5.0320     1.8720    -0.6420 ca         1 409      -0.045000
     21 C21         -5.7460     3.0750    -0.7200 ca         1 409      -0.285600
     22 C22         -5.1510     4.2120    -1.3220 ca         1 409       0.404600
     23 C23         -3.8510     4.1210    -1.8290 ca         1 409      -0.138300
     24 C27         -7.0610     3.2000    -0.2130 ca         1 409       0.562200
     25 N28         -7.6940     2.1300     0.3840 nv         1 409      -0.652500
     26 N26         -7.6690     4.3740    -0.3260 nb         1 409      -0.636000
     27 C25         -7.0730     5.4090    -0.8950 ca         1 409       0.650900
     28 N24         -5.8570     5.3530    -1.3840 nb         1 409      -0.622000
     29 H1           2.8240     0.6570     1.2270 hx         1 409       0.096700
     30 H2           3.1570    -1.7360     0.8750 h1         1 409       0.047700
     31 H3           2.3260    -1.4940     3.7660 hc         1 409       0.029700
     32 H4           3.7380    -2.3120     3.0820 hc         1 409       0.029700
     33 H5           3.6810    -0.5450     3.1400 hc         1 409       0.029700
     34 H6           1.6160    -3.1860     1.4320 ho         1 409       0.446000
     35 H7           1.6220     0.6300     3.2090 hn         1 409       0.234467
     36 H8           0.6450     1.3280     2.1000 hn         1 409       0.234467
     37 H10          2.8870     0.0290    -1.1660 hn         1 409       0.236500
     38 H11          1.7850     2.5390    -3.6850 ha         1 409       0.123000
     39 H12          0.5690     4.6750    -3.8340 ha         1 409       0.121000
     40 H13         -1.7190     4.8610    -2.9380 ha         1 409       0.125000
     41 H14         -1.5680     0.7410    -1.7480 ha         1 409       0.146000
     42 H15         -3.2220     0.8670    -1.0850 ha         1 409       0.116000
     43 H16         -5.4850     1.0010    -0.1830 ha         1 409       0.116000
     44 H17         -3.3310     5.0160    -2.1510 ha         1 409       0.127000
     45 H18         -7.6210     1.9940     1.3730 hn         1 409       0.285800
     46 H19         -8.2610     1.5140    -0.1650 hn         1 409       0.285800
     47 H20         -7.6150     6.3450    -0.9610 h5         1 409       0.003100
     48 H73          0.3780    -0.2150     2.5590 hn         1 409       0.234467
@<TRIPOS>BOND
     1     1     2 2   
     2     2     3 1   
     3     2     8 1   
     4     3     4 1   
     5     3     7 1   
     6     3    29 1   
     7     4     5 1   
     8     4     6 1   
     9     4    30 1   
    10     5    31 1   
    11     5    32 1   
    12     5    33 1   
    13     6    34 1   
    14     7    35 1   
    15     7    36 1   
    16     7    48 1   
    17     8     9 1   
    18     8    37 1   
    19     9    10 2   
    20     9    11 2   
    21     9    12 1   
    22    12    13 ar  
    23    12    17 ar  
    24    13    14 ar  
    25    13    38 1   
    26    14    15 ar  
    27    14    39 1   
    28    15    16 ar  
    29    15    40 1   
    30    16    17 ar  
    31    16    18 1   
    32    17    41 1   
    33    18    19 ar  
    34    18    23 ar  
    35    19    20 ar  
    36    19    42 1   
    37    20    21 ar  
    38    20    43 1   
    39    21    22 ar  
    40    21    24 ar  
    41    22    23 ar  
    42    22    28 ar  
    43    23    44 1   
    44    24    25 1   
    45    24    26 ar  
    46    25    45 1   
    47    25    46 1   
    48    26    27 ar  
    49    27    28 ar  
    50    27    47 1   
@<TRIPOS>SUBSTRUCTURE
     1 409         1 TEMP              0 ****  ****    0 ROOT
