@<TRIPOS>MOLECULE
molecule
   48    50     1     0     0
SMALL
bcc


@<TRIPOS>ATOM
      1 O8           0.0000     0.0000     0.0000 o          1 409      -0.536100
      2 C4           1.2120     0.0000     0.0000 c          1 409       0.680100
      3 C3           1.9660     0.0000     1.3050 c3         1 409       0.027500
      4 C2           2.4380    -1.4210     1.6210 c3         1 409       0.126100
      5 C1           3.0940    -1.4440     3.0030 c3         1 409      -0.146100
      6 O6           1.3190    -2.3090     1.6090 oh         1 409      -0.606800
      7 N7           1.0830     0.4730     2.3800 nz         1 409      -0.794600
      8 N5           1.8870    -0.0040    -1.1670 ns         1 409      -0.630300
      9 S9           1.0590    -0.0110    -2.6020 sy         1 409       1.392900
     10 O10          2.0390     0.0200    -3.6300 o          1 409      -0.582800
     11 O11          0.0770    -1.0330    -2.4930 o          1 409      -0.582800
     12 C12          0.1820     1.5130    -2.7040 ca         1 409      -0.328500
     13 C13          0.7790     2.6160    -3.2900 ca         1 409      -0.033000
     14 C14          0.0960     3.8150    -3.3740 ca         1 409      -0.142000
     15 C15         -1.1860     3.9200    -2.8730 ca         1 409      -0.052000
     16 C16         -1.7930     2.8130    -2.2830 cp         1 409      -0.056000
     17 C17         -1.1020     1.6040    -2.2060 ca         1 409      -0.015000
     18 C18         -3.1700     2.9180    -1.7430 cp         1 409      -0.027000
     19 C19         -3.7700     1.8000    -1.1460 ca         1 409      -0.147000
     20 C20         -5.0320     1.8720    -0.6420 ca         1 409      -0.072000
     21 C21         -5.7460     3.0750    -0.7200 ca         1 409      -0.296600
     22 C22         -5.1510     4.2120    -1.3220 ca         1 409       0.450600
     23 C23         -3.8510     4.1210    -1.8290 ca         1 409      -0.162300
     24 C27         -7.0610     3.2000    -0.2130 ca         1 409       0.748200
     25 N28         -7.6940     2.1300     0.3840 nv         1 409      -1.082500
     26 N26         -7.6690     4.3740    -0.3260 nb         1 409      -0.759000
     27 C25         -7.0730     5.4090    -0.8950 ca         1 409       0.706900
     28 N24         -5.8570     5.3530    -1.3840 nb         1 409      -0.735000
     29 H1           2.8240     0.6570     1.2270 hx         1 409       0.124700
     30 H2           3.1570    -1.7360     0.8750 h1         1 409       0.089700
     31 H3           2.3260    -1.4940     3.7660 hc         1 409       0.066033
     32 H4           3.7380    -2.3120     3.0820 hc         1 409       0.066033
     33 H5           3.6810    -0.5450     3.1400 hc         1 409       0.066033
     34 H6           1.6160    -3.1860     1.4320 ho         1 409       0.457000
     35 H7           1.6220     0.6300     3.2090 hn         1 409       0.469467
     36 H8           0.6450     1.3280     2.1000 hn         1 409       0.469467
     37 H10          2.8870     0.0290    -1.1660 hn         1 409       0.352500
     38 H11          1.7850     2.5390    -3.6850 ha         1 409       0.152000
     39 H12          0.5690     4.6750    -3.8340 ha         1 409       0.152000
     40 H13         -1.7190     4.8610    -2.9380 ha         1 409       0.155000
     41 H14         -1.5680     0.7410    -1.7480 ha         1 409       0.166000
     42 H15         -3.2220     0.8670    -1.0850 ha         1 409       0.136000
     43 H16         -5.4850     1.0010    -0.1830 ha         1 409       0.147000
     44 H17         -3.3310     5.0160    -2.1510 ha         1 409       0.154000
     45 H18         -7.6210     1.9940     1.3730 hn         1 409       0.447800
     46 H19         -8.2610     1.5140    -0.1650 hn         1 409       0.447800
     47 H20         -7.6150     6.3450    -0.9610 h5         1 409       0.067100
     48 H73          0.3780    -0.2150     2.5590 hn         1 409       0.469467
@<TRIPOS>BOND
     1    25    24 1   
     2    20    19 ar  
     3    20    21 ar  
     4    24    21 ar  
     5    24    26 ar  
     6    11     9 2   
     7    19    18 ar  
     8    21    22 ar  
     9    26    27 ar  
    10     1     2 2   
    11     7     3 1   
    12     9    10 2   
    13     9     8 1   
    14     9    12 1   
    15     2     8 1   
    16     2     3 1   
    17    17    12 ar  
    18    17    16 ar  
    19    18    16 1   
    20    18    23 ar  
    21     3     4 1   
    22    22    23 ar  
    23    22    28 ar  
    24    27    28 ar  
    25    12    13 ar  
    26    16    15 ar  
    27     4     6 1   
    28     4     5 1   
    29    13    14 ar  
    30    15    14 ar  
    31     3    29 1   
    32     4    30 1   
    33     5    31 1   
    34     5    32 1   
    35     5    33 1   
    36     6    34 1   
    37     7    35 1   
    38     7    36 1   
    39     8    37 1   
    40    13    38 1   
    41    14    39 1   
    42    15    40 1   
    43    17    41 1   
    44    19    42 1   
    45    20    43 1   
    46    23    44 1   
    47    25    45 1   
    48    25    46 1   
    49    27    47 1   
    50    48     7 1   
@<TRIPOS>SUBSTRUCTURE
     1 409         1 TEMP              0 ****  ****    0 ROOT
