@<TRIPOS>MOLECULE
molecule
   42    44     1     0     0
SMALL
bcc


@<TRIPOS>ATOM
      1 OAD          0.0000     0.0000     0.0000 o          1 40B      -0.841167
      2 PBC          1.4800     0.0000     0.0000 p5         1 40B       1.000200
      3 OAE          2.0170     0.0000     1.5180 o          1 40B      -0.841167
      4 OAA          2.0170    -1.3160    -0.7580 o          1 40B      -0.841167
      5 CBB          2.0880     1.4880    -0.8600 c3         1 40B       0.066700
      6 PBD          1.4790     1.4870    -2.5790 p5         1 40B       1.000200
      7 OAF          2.0160     2.8010    -3.3390 o          1 40B      -0.841167
      8 OAG          2.0170     0.1720    -3.3370 o          1 40B      -0.841167
      9 OAB         -0.0000     1.4860    -2.5790 o          1 40B      -0.841167
     10 OAC          1.6120     2.6550    -0.1870 oh         1 40B      -0.599800
     11 CAU          3.5940     1.4880    -0.8600 ca         1 40B       0.021700
     12 CAR          4.2830     2.5220    -0.2580 ca         1 40B      -0.090000
     13 CAL          4.2850     0.4500    -1.4590 ca         1 40B      -0.042000
     14 CAJ          5.6680     0.4430    -1.4630 ca         1 40B      -0.181000
     15 CAM          6.3670     1.4740    -0.8680 ca         1 40B      -0.164000
     16 CAV          5.6770     2.5200    -0.2580 cp         1 40B      -0.109000
     17 CAW          6.4220     3.6280     0.3880 cp         1 40B       0.047000
     18 CBA          7.8150     3.6250     0.3870 ca         1 40B      -0.162000
     19 CAN          5.7310     4.6760     0.9930 ca         1 40B      -0.180000
     20 CAK          6.4250     5.7110     1.5890 ca         1 40B      -0.136000
     21 CAQ          7.8050     5.7130     1.5910 ca         1 40B      -0.208000
     22 CAZ          8.5080     4.6670     0.9940 cp         1 40B      -0.053000
     23 CAY          9.9910     4.6710     0.9980 cp         1 40B      -0.083000
     24 CAP         10.6940     3.6290     0.3960 ca         1 40B      -0.153500
     25 CAI         12.0750     3.6380     0.4020 ca         1 40B      -0.137500
     26 CAH         12.7600     4.6790     1.0040 ca         1 40B      -0.298000
     27 CAO         12.0670     5.7150     1.6020 ca         1 40B      -0.137500
     28 CAX         10.6870     5.7200     1.5960 ca         1 40B      -0.153500
     29 H5           0.6690     2.6610    -0.1970 ho         1 40B       0.413000
     30 H6           3.7420     3.2940     0.2750 ha         1 40B       0.134000
     31 H7           3.7400    -0.3610    -1.9280 ha         1 40B       0.235000
     32 H8           6.2040    -0.3720    -1.9330 ha         1 40B       0.082000
     33 H9           7.4480     1.5030    -0.9320 ha         1 40B       0.072000
     34 H10          8.3560     2.8110    -0.0780 ha         1 40B       0.123000
     35 H11          4.6480     4.6800     0.9950 ha         1 40B       0.146000
     36 H12          5.8830     6.5250     2.0560 ha         1 40B       0.080000
     37 H13          8.3440     6.5270     2.0620 ha         1 40B       0.082000
     38 H14         10.1580     2.8140    -0.0750 ha         1 40B       0.112000
     39 H15         12.6220     2.8290    -0.0650 ha         1 40B       0.071000
     40 H16         13.8430     4.6800     1.0080 ha         1 40B       0.066000
     41 H17         12.6080     6.5290     2.0690 ha         1 40B       0.071000
     42 H18         10.1450     6.5320     2.0650 ha         1 40B       0.112000
@<TRIPOS>BOND
     1     1     2 1   
     2    20    21 ar  
     3    20    19 ar  
     4     4     2 1   
     5     2     3 1   
     6     2     5 1   
     7    21    22 ar  
     8    19    17 ar  
     9    24    25 ar  
    10    24    23 ar  
    11    25    26 ar  
    12    10     5 1   
    13    22    23 1   
    14    22    18 ar  
    15    17    18 ar  
    16    17    16 1   
    17    23    28 ar  
    18     5    11 1   
    19     5     6 1   
    20    12    16 ar  
    21    12    11 ar  
    22    16    15 ar  
    23    11    13 ar  
    24    26    27 ar  
    25    15    14 ar  
    26    13    14 ar  
    27     9     6 1   
    28    28    27 ar  
    29     6     7 1   
    30     6     8 1   
    31    10    29 1   
    32    12    30 1   
    33    13    31 1   
    34    14    32 1   
    35    15    33 1   
    36    18    34 1   
    37    19    35 1   
    38    20    36 1   
    39    21    37 1   
    40    24    38 1   
    41    25    39 1   
    42    26    40 1   
    43    27    41 1   
    44    28    42 1   
@<TRIPOS>SUBSTRUCTURE
     1 40B         1 TEMP              0 ****  ****    0 ROOT
