@<TRIPOS>MOLECULE
molecule
   40    41     1     0     0
SMALL
bcc


@<TRIPOS>ATOM
      1 F2           0.0000     0.0000     0.0000 f          1 40D      -0.222967
      2 C16          1.3990     0.0000     0.0000 c3         1 40D       0.679200
      3 F            1.8660     0.0000     1.3180 f          1 40D      -0.222967
      4 F1           1.8650    -1.1430    -0.6600 f          1 40D      -0.222967
      5 C13          1.9010     1.2300    -0.7110 ca         1 40D      -0.224300
      6 C12          2.1310     2.3930     0.0010 ca         1 40D      -0.031000
      7 C11          2.5910     3.5230    -0.6480 ca         1 40D      -0.236000
      8 C14          2.1360     1.1930    -2.0730 ca         1 40D      -0.018000
      9 C15          2.5960     2.3200    -2.7270 ca         1 40D      -0.061900
     10 Br           2.9170     2.2690    -4.5900 br         1 40D      -0.062100
     11 C10          2.8220     3.4900    -2.0160 ca         1 40D       0.197100
     12 O            3.2740     4.6000    -2.6560 os         1 40D      -0.301900
     13 H1           1.9510     2.4180     1.0680 ha         1 40D       0.150000
     14 H2           2.7690     4.4340    -0.0900 ha         1 40D       0.155000
     15 H3           1.9600     0.2800    -2.6280 ha         1 40D       0.164000
     16 C1           3.3720     5.8000    -1.8850 c3         1 40D       0.185400
     17 C2           4.8210     6.0050    -1.4430 c3         1 40D      -0.099400
     18 C4           3.2120     6.9990    -4.0770 ca         1 40D      -0.106500
     19 C5           2.8080     8.0740    -4.8450 ca         1 40D      -0.128500
     20 C6           2.1280     9.1260    -4.2590 ca         1 40D      -0.119000
     21 C7           1.8500     9.1020    -2.9060 ca         1 40D      -0.128500
     22 C8           2.2550     8.0260    -2.1360 ca         1 40D      -0.106500
     23 C9           2.9300     6.9720    -2.7230 ca         1 40D      -0.100300
     24 C3           5.2290     4.8790    -0.4910 c3         1 40D       0.148800
     25 N1           6.6210     5.0760    -0.0650 n7         1 40D      -0.816200
     26 C18          7.0470     4.0110     0.8510 c3         1 40D       0.147100
     27 H4           2.7350     5.7210    -1.0120 h1         1 40D       0.057700
     28 H5           4.9120     6.9580    -0.9350 hc         1 40D       0.068700
     29 H6           5.4690     5.9960    -2.3110 hc         1 40D       0.068700
     30 H7           3.7450     6.1750    -4.5360 ha         1 40D       0.137500
     31 H8           3.0270     8.0950    -5.9060 ha         1 40D       0.133000
     32 H9           1.8110     9.9680    -4.8620 ha         1 40D       0.131000
     33 H10          1.3190     9.9270    -2.4470 ha         1 40D       0.133000
     34 H11          2.0380     8.0060    -1.0750 ha         1 40D       0.137500
     35 H12          4.5820     4.8890     0.3780 h1         1 40D       0.034700
     36 H13          5.1380     3.9270    -0.9980 h1         1 40D       0.034700
     37 H14          6.7090     5.9630     0.3900 hn         1 40D       0.350800
     38 H15          6.4380     4.0400     1.7470 h1         1 40D       0.032367
     39 H16          6.9310     3.0490     0.3660 h1         1 40D       0.032367
     40 H17          8.0870     4.1580     1.1170 h1         1 40D       0.032367
@<TRIPOS>BOND
     1     1     2 1   
     2     3     2 1   
     3     4     2 1   
     4     2     5 1   
     5     5     6 ar  
     6     5     8 ar  
     7     6     7 ar  
     8     8     9 ar  
     9     7    11 ar  
    10     9    11 ar  
    11     9    10 1   
    12    11    12 1   
    13     6    13 1   
    14     7    14 1   
    15     8    15 1   
    16    12    16 1   
    17    16    17 1   
    18    16    23 1   
    19    18    19 ar  
    20    19    20 ar  
    21    20    21 ar  
    22    21    22 ar  
    23    22    23 ar  
    24    23    18 ar  
    25    17    24 1   
    26    24    25 1   
    27    25    26 1   
    28    16    27 1   
    29    17    28 1   
    30    17    29 1   
    31    18    30 1   
    32    19    31 1   
    33    20    32 1   
    34    21    33 1   
    35    22    34 1   
    36    24    35 1   
    37    24    36 1   
    38    25    37 1   
    39    26    38 1   
    40    26    39 1   
    41    26    40 1   
@<TRIPOS>SUBSTRUCTURE
     1 40D         1 TEMP              0 ****  ****    0 ROOT
