@<TRIPOS>MOLECULE
molecule
   17    16     1     0     0
SMALL
bcc


@<TRIPOS>ATOM
      1 C1           0.0000     0.0000     0.0000 c          1 40E       0.832600
      2 O11          1.3460     0.0000     0.0000 o          1 40E      -0.815800
      3 O12         -0.6060     0.0000     1.0500 o          1 40E      -0.815800
      4 C2          -0.7470     0.0050    -1.2940 c          1 40E       0.560100
      5 O2          -0.1410     0.0100    -2.3450 o          1 40E      -0.634100
      6 N3          -2.0950     0.0050    -1.2940 ns         1 40E      -0.592900
      7 C4          -2.8280     0.0100    -2.5610 c3         1 40E       0.106700
      8 C41         -4.2150    -0.6020    -2.3510 c3         1 40E      -0.105600
      9 C42         -2.9750     1.4480    -3.0600 c3         1 40E      -0.105600
     10 H2          -2.5950    -0.0100    -0.4270 hn         1 40E       0.322500
     11 H3          -2.2840    -0.5730    -3.2950 h1         1 40E       0.066700
     12 H4          -4.1110    -1.6150    -1.9810 hc         1 40E       0.030367
     13 H5          -4.7660    -0.0090    -1.6310 hc         1 40E       0.030367
     14 H6          -4.7500    -0.6150    -3.2930 hc         1 40E       0.030367
     15 H7          -3.6020     1.4630    -3.9430 hc         1 40E       0.030367
     16 H8          -3.4280     2.0550    -2.2850 hc         1 40E       0.030367
     17 H9          -1.9980     1.8470    -3.3050 hc         1 40E       0.030367
@<TRIPOS>BOND
     1     5     4 2
     2     3     1 1
     3     4     1 1
     4     4     6 1
     5     1     2 1
     6     6     7 1
     7     7     9 1
     8     7     8 1
     9     6    10 1
    10     7    11 1
    11     8    12 1
    12     8    13 1
    13     8    14 1
    14     9    15 1
    15     9    16 1
    16     9    17 1
@<TRIPOS>SUBSTRUCTURE
     1 40E         1 TEMP              0 ****  ****    0 ROOT
