@<TRIPOS>MOLECULE
molecule
   23    24     1     0     0
SMALL
bcc


@<TRIPOS>ATOM
      1 O1           0.0000     0.0000     0.0000 o          1 40F      -0.795300
      2 C7           2.3710    -1.4540    -1.7700 c3         1 40F      -0.076400
      3 O2           5.9340     2.8370    -3.1010 o          1 40F      -0.823300
      4 C6           3.5990    -1.2870    -2.7010 c3         1 40F      -0.075400
      5 C1           2.0950    -0.0020    -1.3060 c3         1 40F       0.024200
      6 C5           4.4550    -0.2080    -2.0060 cx         1 40F      -0.144700
      7 C3           4.1910     1.2590    -2.3510 cx         1 40F      -0.152700
      8 C2           3.5000     0.6090    -1.1190 cx         1 40F      -0.159700
      9 O3           5.6050     2.5080    -0.9410 o          1 40F      -0.823300
     10 N            1.3470     0.7350    -2.3330 nz         1 40F      -0.782600
     11 C            1.3430     0.0000     0.0000 c          1 40F       0.883600
     12 O            1.9470     0.0000     1.0450 o          1 40F      -0.795300
     13 H2           2.6150    -2.0860    -0.9250 hc         1 40F       0.064200
     14 H3           1.5250    -1.8460    -2.3210 hc         1 40F       0.064200
     15 H5           4.1480    -2.2180    -2.7720 hc         1 40F       0.036200
     16 H6           3.2870    -0.9470    -3.6810 hc         1 40F       0.036200
     17 H7           5.3760    -0.4730    -1.5000 hc         1 40F       0.109700
     18 H8           3.5430     1.4170    -3.2040 hc         1 40F       0.023700
     19 H9           3.9030     0.7850    -0.1290 hc         1 40F       0.162700
     20 H10          0.3940     0.4300    -2.3330 hn         1 40F       0.437467
     21 H11          1.7530     0.5610    -3.2310 hn         1 40F       0.437467
     22 C4           5.2950     2.2470    -2.0790 c          1 40F       0.911600
     23 HN3          1.3840     1.7150    -2.1340 hn         1 40F       0.437467
@<TRIPOS>BOND
     1    12    11 1
     2    10     5 1
     3    11     5 1
     4    11     1 1
     5     5     8 1
     6     5     2 1
     7     8     7 1
     8     8     6 1
     9     2     4 1
    10     7    22 1
    11     7     6 1
    12    22     9 1
    13    22     3 1
    14     6     4 1
    15     2    13 1
    16     2    14 1
    17     4    15 1
    18     4    16 1
    19     6    17 1
    20     7    18 1
    21     8    19 1
    22    10    20 1
    23    10    21 1
    24    23    10 1
@<TRIPOS>SUBSTRUCTURE
     1 40F         1 TEMP              0 ****  ****    0 ROOT
