@<TRIPOS>MOLECULE
40F
   23    24     1     0     0
SMALL
bcc


@<TRIPOS>ATOM
      1 O1           0.0000     0.0000     0.0000 o          1 40F      -0.834300
      2 C7           2.3710    -1.4540    -1.7700 c3         1 40F      -0.005400
      3 O2           5.9340     2.8370    -3.1010 o          1 40F      -0.872300
      4 C6           3.5990    -1.2870    -2.7010 c3         1 40F      -0.009400
      5 C1           2.0950    -0.0020    -1.3060 c3         1 40F      -0.171800
      6 C5           4.4550    -0.2080    -2.0060 cx         1 40F      -0.129700
      7 C3           4.1910     1.2590    -2.3510 cx         1 40F      -0.116700
      8 C2           3.5000     0.6090    -1.1190 cx         1 40F      -0.142700
      9 O3           5.6050     2.5080    -0.9410 o          1 40F      -0.872300
     10 N            1.3470     0.7350    -2.3330 nz         1 40F       0.070400
     11 C            1.3430     0.0000     0.0000 c          1 40F       0.966600
     12 O            1.9470     0.0000     1.0450 o          1 40F      -0.834300
     13 H2           2.6150    -2.0860    -0.9250 hc         1 40F       0.031200
     14 H3           1.5250    -1.8460    -2.3210 hc         1 40F       0.031200
     15 H5           4.1480    -2.2180    -2.7720 hc         1 40F       0.008700
     16 H6           3.2870    -0.9470    -3.6810 hc         1 40F       0.008700
     17 H7           5.3760    -0.4730    -1.5000 hc         1 40F       0.084700
     18 H8           3.5430     1.4170    -3.2040 hc         1 40F       0.002700
     19 H9           3.9030     0.7850    -0.1290 hc         1 40F       0.140700
     20 H10          0.3940     0.4300    -2.3330 hn         1 40F       0.214800
     21 H11          1.7530     0.5610    -3.2310 hn         1 40F       0.214800
     22 C4           5.2950     2.2470    -2.0790 c          1 40F       0.997600
     23 HN3          1.3840     1.7150    -2.1340 hn         1 40F       0.214800
@<TRIPOS>BOND
     1     1    11 1   
     2     2     4 1   
     3     2     5 1   
     4     2    13 1   
     5     2    14 1   
     6     3    22 1   
     7     4     6 1   
     8     4    15 1   
     9     4    16 1   
    10     5     8 1   
    11     5    10 1   
    12     5    11 1   
    13     6     7 1   
    14     6     8 1   
    15     6    17 1   
    16     7     8 1   
    17     7    18 1   
    18     7    22 1   
    19     8    19 1   
    20     9    22 1   
    21    10    20 1   
    22    10    21 1   
    23    10    23 1   
    24    11    12 1   
@<TRIPOS>SUBSTRUCTURE
     1 40F         1 TEMP              0 ****  ****    0 ROOT
