@<TRIPOS>MOLECULE
molecule
   27    29     1     0     0
SMALL
bcc


@<TRIPOS>ATOM
      1 O1           0.0000     0.0000     0.0000 o          1 40H      -0.825300
      2 C7           5.5220     1.5140    -2.3520 cx         1 40H      -0.134400
      3 O2           3.6250    -3.7370    -2.5460 o          1 40H      -0.795300
      4 C6           4.2120     1.8560    -3.0660 cx         1 40H      -0.134400
      5 C1           3.2180    -1.5000    -3.1600 c3         1 40H       0.029200
      6 C5           4.4170     0.4750    -2.4630 cx         1 40H      -0.124000
      7 C4           3.6250     0.0010    -1.2370 cx         1 40H      -0.118700
      8 C3           2.0960    -0.0000    -1.3050 cx         1 40H      -0.150700
      9 C2           2.8670    -1.2680    -1.6760 cx         1 40H      -0.151700
     10 C9           3.3630    -2.9730    -3.4430 c          1 40H       0.882600
     11 N            2.1900    -0.9100    -4.0280 nz         1 40H      -0.783600
     12 C8           1.3430     0.0000     0.0000 c          1 40H       0.916600
     13 O            1.9470     0.0000     1.0460 o          1 40H      -0.825300
     14 C            4.5740    -0.7740    -3.3520 c3         1 40H      -0.037400
     15 H2           5.6510     1.9570    -1.3720 hc         1 40H       0.072450
     16 H3           6.3790     1.3570    -2.9970 hc         1 40H       0.072450
     17 H4           4.2670     1.9080    -4.1470 hc         1 40H       0.072450
     18 H5           3.5390     2.5080    -2.5220 hc         1 40H       0.072450
     19 H6           4.1120    -0.1230    -0.2770 hc         1 40H       0.126700
     20 H7           1.6810     0.5400    -2.1470 hc         1 40H       0.025700
     21 H8           2.9470    -2.0710    -0.9530 hc         1 40H       0.152700
     22 H10          1.2890    -1.2530    -3.7590 hn         1 40H       0.439800
     23 H11          2.2090     0.0860    -3.9380 hn         1 40H       0.439800
     24 H13          4.7130    -0.4910    -4.3880 hc         1 40H       0.067200
     25 H14          5.3920    -1.3920    -3.0020 hc         1 40H       0.067200
     26 O3           3.2020    -3.4350    -4.6930 o          1 40H      -0.795300
     27 HN3          2.3600    -1.1780    -4.9770 hn         1 40H       0.439800
@<TRIPOS>BOND
     1     4     2 1   
     2     4     6 1   
     3     2     6 1   
     4    13    12 1   
     5     7     6 1   
     6     7     8 1   
     7     7     9 1   
     8     6    14 1   
     9    12     1 1   
    10    12     8 1   
    11     8     9 1   
    12     9     5 1   
    13    14     5 1   
    14     3    10 1   
    15     5    10 1   
    16     5    11 1   
    17    10    26 1   
    18     2    15 1   
    19     2    16 1   
    20     4    17 1   
    21     4    18 1   
    22     7    19 1   
    23     8    20 1   
    24     9    21 1   
    25    11    22 1   
    26    11    23 1   
    27    14    24 1   
    28    14    25 1   
    29    27    11 1   
@<TRIPOS>SUBSTRUCTURE
     1 40H         1 TEMP              0 ****  ****    0 ROOT
