@<TRIPOS>MOLECULE
molecule
   42    43     1     0     0
SMALL
bcc


@<TRIPOS>ATOM
      1 OAQ          0.0000     0.0000     0.0000 oh         1 40J      -0.579800
      2 CAH          1.4290     0.0000     0.0000 c3         1 40J       0.113100
      3 CAG          1.9710     0.0000     1.4500 c3         1 40J       0.090100
      4 OAR          2.4140     1.3050     1.8280 oh         1 40J      -0.592800
      5 CAK          3.1650    -0.9830     1.3510 c3         1 40J       0.115100
      6 CAN          3.4710    -1.5990     2.7170 c3         1 40J       0.062000
      7 Cl1          4.9510    -2.6210     2.5980 cl         1 40J      -0.188400
      8 OAJ          2.6940    -1.9930     0.4320 os         1 40J      -0.378600
      9 CAI          1.9680    -1.3110    -0.6050 c3         1 40J       0.325600
     10 CAM          2.9010    -1.0020    -1.7770 c3         1 40J       0.008000
     11 Cl2          4.2800     0.0070    -1.1980 cl         1 40J      -0.180400
     12 OAL          0.8810    -2.1230    -1.0510 os         1 40J      -0.391600
     13 CAE          1.2730    -3.4180    -1.5110 c3         1 40J       0.319900
     14 OAF          1.7040    -4.2080    -0.4000 os         1 40J      -0.388600
     15 CAA          0.7120    -4.3810     0.6140 c3         1 40J       0.148100
     16 CAO          1.2910    -5.2130     1.7590 c3         1 40J       0.146400
     17 OAS          2.3500    -4.4870     2.3870 oh         1 40J      -0.594800
     18 CAB         -0.5020    -5.1030     0.0200 c3         1 40J       0.004700
     19 Cl3         -0.0090    -6.7430    -0.5440 cl         1 40J      -0.180400
     20 CAC         -1.0390    -4.2930    -1.1640 c3         1 40J       0.132100
     21 OAT         -2.1270    -4.9950    -1.7680 oh         1 40J      -0.590800
     22 CAD          0.0830    -4.1010    -2.1890 c3         1 40J       0.127100
     23 OAP         -0.3870    -3.2860    -3.2640 oh         1 40J      -0.588800
     24 H1          -0.3140     0.8520    -0.2550 ho         1 40J       0.406000
     25 H2           1.8140     0.8530    -0.5460 h1         1 40J       0.075700
     26 H3           1.2230    -0.3750     2.1380 h1         1 40J       0.067700
     27 H4           1.8320     1.6580     2.4810 ho         1 40J       0.408000
     28 H5           4.0360    -0.4810     0.9480 h1         1 40J       0.098700
     29 H6           3.6340    -0.8090     3.4410 h1         1 40J       0.075700
     30 H7           2.6340    -2.2100     3.0330 h1         1 40J       0.075700
     31 H8           3.2810    -1.9280    -2.1910 h1         1 40J       0.082700
     32 H9           2.3550    -0.4620    -2.5410 h1         1 40J       0.082700
     33 H10          2.0860    -3.3240    -2.2210 h2         1 40J       0.083700
     34 H11          0.4060    -3.4110     0.9860 h1         1 40J       0.077700
     35 H12          0.5140    -5.4190     2.4850 h1         1 40J       0.036200
     36 H13          1.6760    -6.1470     1.3680 h1         1 40J       0.036200
     37 H14          2.7480    -5.0240     3.0520 ho         1 40J       0.404000
     38 H15         -1.2730    -5.1910     0.7750 h1         1 40J       0.080700
     39 H16         -1.3760    -3.3250    -0.8150 h1         1 40J       0.076700
     40 H17         -2.9410    -4.5950    -1.5100 ho         1 40J       0.408000
     41 H18          0.3910    -5.0670    -2.5690 h1         1 40J       0.079700
     42 H19         -0.3550    -3.7780    -4.0680 ho         1 40J       0.409000
@<TRIPOS>BOND
     1    11    10 1   
     2    10     9 1   
     3     9    12 1   
     4     9     8 1   
     5     9     2 1   
     6    12    13 1   
     7     8     5 1   
     8    23    22 1   
     9    13    22 1   
    10    13    14 1   
    11     7     6 1   
    12    22    20 1   
    13     5     6 1   
    14     5     3 1   
    15     2     3 1   
    16     2     1 1   
    17    14    15 1   
    18     3     4 1   
    19    19    18 1   
    20    21    20 1   
    21    20    18 1   
    22    15    18 1   
    23    15    16 1   
    24    16    17 1   
    25     1    24 1   
    26     2    25 1   
    27     3    26 1   
    28     4    27 1   
    29     5    28 1   
    30     6    29 1   
    31     6    30 1   
    32    10    31 1   
    33    10    32 1   
    34    13    33 1   
    35    15    34 1   
    36    16    35 1   
    37    16    36 1   
    38    17    37 1   
    39    18    38 1   
    40    20    39 1   
    41    21    40 1   
    42    22    41 1   
    43    23    42 1   
@<TRIPOS>SUBSTRUCTURE
     1 40J         1 TEMP              0 ****  ****    0 ROOT
