@<TRIPOS>MOLECULE
40K
   35    38     1     0     0
SMALL
bcc


@<TRIPOS>ATOM
      1 C10          0.0000     0.0000     0.0000 cc         1 40K       0.301000
      2 C13         -1.4920     0.2160    -3.3850 cd         1 40K      -0.124000
      3 C20         -4.2670    -0.2290     2.7830 ca         1 40K      -0.052500
      4 C21         -5.5540    -0.3280     3.2650 ca         1 40K      -0.115000
      5 C22         -5.8380     0.0390     4.5710 ca         1 40K      -0.015600
      6 C24         -4.8330     0.5070     5.3990 ca         1 40K      -0.115000
      7 O01          0.7480     2.1820     5.7270 o          1 40K      -0.877800
      8 O03          0.6070     4.2170     4.8760 o          1 40K      -0.877800
      9 C04         -0.6330     2.3590     3.8270 c3         1 40K      -0.139400
     10 C05         -0.8270     0.8580     4.0560 c3         1 40K      -0.005900
     11 S06          0.7550     0.0070     3.8070 ss         1 40K      -0.279400
     12 C07          0.7700     0.0010     2.0450 cc         1 40K       0.291800
     13 N08          1.7650     0.0000     1.2110 nd         1 40K      -0.271000
     14 N09          1.3210     0.0000     0.0000 nd         1 40K      -0.342000
     15 C11         -0.8770    -0.0020    -1.1820 cc         1 40K       0.019400
     16 C12         -0.4880     0.2860    -2.4430 cd         1 40K      -0.111000
     17 C14         -2.6940    -0.1190    -2.9080 cc         1 40K      -0.017100
     18 S15         -2.5960    -0.3730    -1.1700 ss         1 40K      -0.260800
     19 N16         -0.3960    -0.0030     1.3080 na         1 40K       0.341400
     20 N17         -1.6610    -0.0160     1.8880 n2         1 40K      -0.625100
     21 C18         -1.8660     0.3440     3.1070 ce         1 40K       0.498900
     22 C19         -3.2470     0.2430     3.6150 ca         1 40K      -0.155900
     23 C25         -3.5410     0.6100     4.9300 ca         1 40K      -0.052500
     24 H1          -1.3200     0.4210    -4.4350 ha         1 40K       0.113000
     25 H2          -4.0450    -0.5170     1.7630 ha         1 40K       0.137000
     26 H3          -6.3460    -0.6930     2.6220 ha         1 40K       0.114500
     27 H4          -5.0620     0.7930     6.4190 ha         1 40K       0.114500
     28 H6          -1.5910     2.8600     3.8880 hc         1 40K       0.024200
     29 H7          -0.2020     2.5210     2.8460 hc         1 40K       0.024200
     30 H8          -1.1630     0.6900     5.0720 h1         1 40K       0.106700
     31 H9           0.5330     0.5470    -2.6940 ha         1 40K       0.139000
     32 H10         -3.5950    -0.2200    -3.5020 h4         1 40K       0.142000
     33 H11         -2.7550     0.9770     5.5790 ha         1 40K       0.137000
     34 C02          0.2910     2.9130     4.8800 c          1 40K       0.981600
     35 Cl23        -7.4630    -0.0880     5.1700 cl         1 40K      -0.047400
@<TRIPOS>BOND
     1     1    14 2   
     2     1    15 1   
     3     1    19 1   
     4     2    16 1   
     5     2    17 2   
     6     2    24 1   
     7     3     4 ar  
     8     3    22 ar  
     9     3    25 1   
    10     4     5 ar  
    11     4    26 1   
    12     5     6 ar  
    13     5    35 1   
    14     6    23 ar  
    15     6    27 1   
    16     7    34 1   
    17     8    34 1   
    18     9    10 1   
    19     9    28 1   
    20     9    29 1   
    21     9    34 1   
    22    10    11 1   
    23    10    21 1   
    24    10    30 1   
    25    11    12 1   
    26    12    13 2   
    27    12    19 1   
    28    13    14 1   
    29    15    16 2   
    30    15    18 1   
    31    16    31 1   
    32    17    18 1   
    33    17    32 1   
    34    19    20 1   
    35    20    21 2   
    36    21    22 1   
    37    22    23 ar  
    38    23    33 1   
@<TRIPOS>SUBSTRUCTURE
     1 40K         1 TEMP              0 ****  ****    0 ROOT
