@<TRIPOS>MOLECULE
40L
   49    53     1     0     0
SMALL
bcc


@<TRIPOS>ATOM
      1 C13          0.0000     0.0000     0.0000 ca         1 40L      -0.068500
      2 C15          0.0030    -0.0040     2.3950 ca         1 40L      -0.071000
      3 C17          2.0810     0.0000     1.2040 ca         1 40L      -0.068500
      4 C20          0.7490     2.9880    -1.6790 c3         1 40L      -0.036400
      5 C21          0.2930     4.2160    -0.8890 c3         1 40L      -0.020100
      6 C24          4.2750     5.4390    -0.5260 ca         1 40L      -0.594800
      7 C01          4.2200    -2.1620    -4.9460 ca         1 40L      -0.165000
      8 C02          4.5350    -0.9130    -5.4610 ca         1 40L      -0.034000
      9 C03          4.1690     0.2390    -4.7990 ca         1 40L      -0.118000
     10 C04          3.4700     0.1520    -3.5940 ca         1 40L       0.179400
     11 C05          3.1490    -1.1200    -3.0700 ca         1 40L      -0.253600
     12 C06          3.5280    -2.2750    -3.7550 ca         1 40L       0.203900
     13 F07          3.2230    -3.4930    -3.2580 f          1 40L      -0.107900
     14 N08          3.0920     1.2610    -2.9110 nc         1 40L      -0.565100
     15 C09          2.4120    -1.1770    -1.8000 c          1 40L       0.616100
     16 O10          2.1050    -2.2420    -1.2940 o          1 40L      -0.623500
     17 N11          2.0910    -0.0010    -1.2130 n          1 40L       0.172500
     18 C12          1.3890     0.0000     0.0000 ca         1 40L      -0.139400
     19 C14         -0.6880     0.0000     1.1970 ca         1 40L      -0.090500
     20 C16          1.3860    -0.0100     2.3980 ca         1 40L      -0.090500
     21 C18          2.4420     1.1800    -1.7890 cd         1 40L       0.301900
     22 C19          2.0580     2.4590    -1.0910 c3         1 40L       0.093200
     23 N22          3.1150     3.4550    -1.2790 nu         1 40L      -0.490900
     24 C23          3.2720     4.4810    -0.3620 ca         1 40L       0.589200
     25 C25          4.3900     6.4640     0.4270 ca         1 40L       0.570300
     26 N26          3.5380     6.4790     1.4580 nb         1 40L      -0.622000
     27 C27          2.6120     5.5530     1.5730 ca         1 40L       0.660900
     28 N28          2.4700     4.5770     0.6950 nb         1 40L      -0.729000
     29 N29          5.2650     5.6700    -1.4570 na         1 40L       0.298700
     30 C30          5.9300     6.7810    -1.0660 cc         1 40L       0.255700
     31 N31          5.4160     7.2450     0.0390 nd         1 40L      -0.588700
     32 H1          -0.5420     0.0000    -0.9380 ha         1 40L       0.112500
     33 H2          -0.5400    -0.0080     3.3320 ha         1 40L       0.107000
     34 H3           3.1640    -0.0030     1.2060 ha         1 40L       0.112500
     35 H4           0.8770     3.2560    -2.7210 hc         1 40L       0.022200
     36 H5           0.0010     2.2080    -1.5960 hc         1 40L       0.022200
     37 H6           0.4140     4.0290     0.1710 hc         1 40L       0.017367
     38 H7           0.8920     5.0720    -1.1760 hc         1 40L       0.017367
     39 H8          -0.7500     4.4170    -1.1040 hc         1 40L       0.017367
     40 H9           4.5170    -3.0550    -5.4820 ha         1 40L       0.125000
     41 H10          5.0780    -0.8420    -6.3960 ha         1 40L       0.107000
     42 H11          4.4220     1.2080    -5.2120 ha         1 40L       0.120000
     43 H12         -1.7720     0.0020     1.1970 ha         1 40L       0.110500
     44 H13          1.9250    -0.0120     3.3370 ha         1 40L       0.110500
     45 H14          1.9270     2.2670    -0.0330 h1         1 40L       0.080700
     46 H15          3.7450     3.3760    -2.0530 hn         1 40L       0.306800
     47 H16          1.9380     5.5940     2.4200 h5         1 40L      -0.002900
     48 H17          5.4570     5.1190    -2.2700 hn         1 40L       0.125700
     49 H18          6.7680     7.2210    -1.5930 h5         1 40L       0.029800
@<TRIPOS>BOND
     1     1    18 ar  
     2     1    19 ar  
     3     1    32 1   
     4     2    19 ar  
     5     2    20 ar  
     6     2    33 1   
     7     3    18 ar  
     8     3    20 ar  
     9     3    34 1   
    10     4     5 1   
    11     4    22 1   
    12     4    35 1   
    13     4    36 1   
    14     5    37 1   
    15     5    38 1   
    16     5    39 1   
    17     6    24 ar  
    18     6    25 ar  
    19     6    29 1   
    20     7     8 ar  
    21     7    12 ar  
    22     7    40 1   
    23     8     9 ar  
    24     8    41 1   
    25     9    10 ar  
    26     9    42 1   
    27    10    11 ar  
    28    10    14 1   
    29    11    12 ar  
    30    11    15 1   
    31    12    13 1   
    32    14    21 2   
    33    15    16 2   
    34    15    17 1   
    35    17    18 1   
    36    17    21 1   
    37    19    43 1   
    38    20    44 1   
    39    21    22 1   
    40    22    23 1   
    41    22    45 1   
    42    23    24 1   
    43    23    46 1   
    44    24    28 ar  
    45    25    26 ar  
    46    25    31 1   
    47    26    27 ar  
    48    27    28 ar  
    49    27    47 1   
    50    29    30 1   
    51    29    48 1   
    52    30    31 2   
    53    30    49 1   
@<TRIPOS>SUBSTRUCTURE
     1 40L         1 TEMP              0 ****  ****    0 ROOT
