@<TRIPOS>MOLECULE
40M
   59    62     1     0     0
SMALL
bcc


@<TRIPOS>ATOM
      1 O            0.0000     0.0000     0.0000 o          1 40M      -0.628100
      2 C6           1.2130     0.0000     0.0000 c          1 40M       0.560100
      3 C7           1.9670     0.0000     1.3050 c3         1 40M      -0.099400
      4 C8           0.9720     0.0000     2.4680 c3         1 40M       0.021900
      5 N            1.8870    -0.0050    -1.1670 ns         1 40M      -0.026100
      6 C4           1.1930    -0.1360    -2.3770 ca         1 40M      -0.075400
      7 C5          -0.0910    -0.6600    -2.3880 ca         1 40M      -0.139000
      8 C3          -0.7750    -0.7890    -3.5820 ca         1 40M      -0.065000
      9 C1          -0.1820    -0.3970    -4.7690 ca         1 40M      -0.121000
     10 C            1.0970     0.1270    -4.7670 ca         1 40M      -0.042300
     11 C25          1.7380     0.5530    -6.0620 c3         1 40M       0.050200
     12 C2           1.7870     0.2650    -3.5730 ca         1 40M      -0.051400
     13 N1           3.0810     0.8010    -3.5680 nu         1 40M      -0.318300
     14 C12          3.2740     2.1450    -3.8360 ca         1 40M       0.712900
     15 N3           2.2250     2.8840    -4.1890 nb         1 40M      -0.661000
     16 C11          2.3440     4.1670    -4.4570 ca         1 40M       0.510200
     17 C9           3.6190     4.7560    -4.3610 ca         1 40M      -0.336600
     18 C13          3.8280     6.1160    -4.6270 ca         1 40M      -0.015000
     19 N2           4.4910     2.6440    -3.7250 nb         1 40M      -0.709000
     20 C10          4.7140     3.9390    -3.9810 ca         1 40M       0.458600
     21 C15          5.9950     4.5020    -3.8720 ca         1 40M      -0.175300
     22 C16          6.1800     5.8210    -4.1410 ca         1 40M      -0.040000
     23 C14          5.1040     6.6400    -4.5160 cp         1 40M      -0.081000
     24 C22          5.3350     8.0770    -4.7970 cp         1 40M       0.053000
     25 C21          5.1320     8.5810    -6.0820 ca         1 40M      -0.109100
     26 Cl1          4.6060     7.5230    -7.3550 cl         1 40M       0.007100
     27 C20          5.7510     8.9310    -3.7760 ca         1 40M      -0.109100
     28 Cl           6.0000     8.3130    -2.1740 cl         1 40M       0.007100
     29 C18          5.9670    10.2740    -4.0430 ca         1 40M       0.200100
     30 O1           6.3740    11.1070    -3.0490 os         1 40M      -0.294900
     31 C23          6.5760    12.4790    -3.3940 c3         1 40M       0.244700
     32 C17          5.7690    10.7690    -5.3230 ca         1 40M      -0.311000
     33 C19          5.3490     9.9250    -6.3410 ca         1 40M       0.200100
     34 O2           5.1520    10.4150    -7.5930 os         1 40M      -0.294900
     35 C24          5.3950    11.8100    -7.7890 c3         1 40M       0.244700
     36 H1           2.5900    -0.8850     1.3620 hc         1 40M       0.026700
     37 H2           2.5900     0.8840     1.3620 hc         1 40M       0.026700
     38 H3           0.3060     0.8490     2.3730 hc         1 40M       0.009700
     39 H4           1.5120     0.0680     3.4050 hc         1 40M       0.009700
     40 H5           0.3950    -0.9160     2.4500 hc         1 40M       0.009700
     41 H6           2.8870     0.0420    -1.1670 hn         1 40M       0.167500
     42 H7          -0.5580    -0.9680    -1.4600 ha         1 40M       0.167000
     43 H8          -1.7780    -1.1980    -3.5890 ha         1 40M       0.103000
     44 H9          -0.7230    -0.4990    -5.7020 ha         1 40M       0.107000
     45 H10          2.8130     0.4350    -5.9890 hc         1 40M       0.012700
     46 H11          1.5010     1.5920    -6.2580 hc         1 40M       0.012700
     47 H12          1.3620    -0.0620    -6.8710 hc         1 40M       0.012700
     48 H13          3.8690     0.2030    -3.4160 hn         1 40M       0.292800
     49 H14          1.4810     4.7560    -4.7430 h4         1 40M      -0.013900
     50 H15          2.9990     6.7500    -4.9170 ha         1 40M       0.115000
     51 H16          6.8370     3.8840    -3.5840 ha         1 40M       0.121000
     52 H17          7.1720     6.2480    -4.0580 ha         1 40M       0.111000
     53 H18          5.6480    12.8990    -3.7620 h1         1 40M      -0.000633
     54 H19          7.3350    12.5500    -4.1630 h1         1 40M      -0.000633
     55 H20          6.8990    13.0270    -2.5170 h1         1 40M      -0.000633
     56 H21          5.9390    11.8190    -5.5290 ha         1 40M       0.144000
     57 H22          4.7420    12.3840    -7.1440 h1         1 40M      -0.000633
     58 H23          6.4270    12.0340    -7.5490 h1         1 40M      -0.000633
     59 H24          5.2000    12.0680    -8.8230 h1         1 40M      -0.000633
@<TRIPOS>BOND
     1     1     2 2   
     2     2     3 1   
     3     2     5 1   
     4     3     4 1   
     5     3    36 1   
     6     3    37 1   
     7     4    38 1   
     8     4    39 1   
     9     4    40 1   
    10     5     6 1   
    11     5    41 1   
    12     6     7 ar  
    13     6    12 ar  
    14     7     8 ar  
    15     7    42 1   
    16     8     9 ar  
    17     8    43 1   
    18     9    10 ar  
    19     9    44 1   
    20    10    11 1   
    21    10    12 ar  
    22    11    45 1   
    23    11    46 1   
    24    11    47 1   
    25    12    13 1   
    26    13    14 1   
    27    13    48 1   
    28    14    15 ar  
    29    14    19 ar  
    30    15    16 ar  
    31    16    17 ar  
    32    16    49 1   
    33    17    18 ar  
    34    17    20 ar  
    35    18    23 ar  
    36    18    50 1   
    37    19    20 ar  
    38    20    21 ar  
    39    21    22 ar  
    40    21    51 1   
    41    22    23 ar  
    42    22    52 1   
    43    23    24 1   
    44    24    25 ar  
    45    24    27 ar  
    46    25    26 1   
    47    25    33 ar  
    48    27    28 1   
    49    27    29 ar  
    50    29    30 1   
    51    29    32 ar  
    52    30    31 1   
    53    31    53 1   
    54    31    54 1   
    55    31    55 1   
    56    32    33 ar  
    57    32    56 1   
    58    33    34 1   
    59    34    35 1   
    60    35    57 1   
    61    35    58 1   
    62    35    59 1   
@<TRIPOS>SUBSTRUCTURE
     1 40M         1 TEMP              0 ****  ****    0 ROOT
