@<TRIPOS>MOLECULE
40N
   31    34     1     0     0
SMALL
bcc


@<TRIPOS>ATOM
      1 FAB          0.0000     0.0000     0.0000 f          1 40N      -0.126900
      2 CAN          1.3510     0.0000     0.0000 ca         1 40N       0.112900
      3 CAE          2.0430     0.0000     1.1960 ca         1 40N      -0.130000
      4 CAC          3.4260    -0.0000     1.1980 ca         1 40N      -0.061000
      5 CAD          4.1260    -0.0010     0.0040 ca         1 40N      -0.112000
      6 CAF          3.4490    -0.0010    -1.1980 ca         1 40N      -0.044000
      7 CAR          2.0530    -0.0060    -1.2090 ca         1 40N      -0.107800
      8 CAO          1.3210    -0.0060    -2.4920 cc         1 40N       0.046800
      9 CAG          1.5750    -1.0030    -3.4030 cd         1 40N      -0.304200
     10 CAS          0.8870    -1.0220    -4.6330 c          1 40N       0.638900
     11 OAA          1.0980    -1.9000    -5.4560 o          1 40N      -0.608100
     12 CAU         -0.0920     0.0440    -4.8970 ca         1 40N      -0.200600
     13 CAI         -0.8090     0.0860    -6.0950 ca         1 40N       0.006000
     14 CAQ         -1.7190     1.0980    -6.3130 ca         1 40N       0.012100
     15 OAM         -2.5340     1.3630    -7.3760 os         1 40N      -0.306900
     16 CAJ         -3.5300     2.2750    -6.8780 c3         1 40N       0.431200
     17 OAL         -2.8660     2.9570    -5.7980 os         1 40N      -0.313900
     18 CAP         -1.9250     2.0820    -5.3390 ca         1 40N       0.118100
     19 CAH         -1.2180     2.0470    -4.1500 ca         1 40N      -0.162000
     20 CAT         -0.2990     1.0320    -3.9170 ca         1 40N       0.013600
     21 NAK          0.4100     0.9800    -2.7350 na         1 40N      -0.074400
     22 H1           1.5010     0.0000     2.1350 ha         1 40N       0.123000
     23 H2           3.9640    -0.0000     2.1380 ha         1 40N       0.109000
     24 H3           5.2090     0.0010     0.0140 ha         1 40N       0.112000
     25 H4           4.0000    -0.0030    -2.1310 ha         1 40N       0.121000
     26 H5           2.2530    -1.8090    -3.1480 ha         1 40N       0.143000
     27 H6          -0.5850    -0.6210    -6.8850 ha         1 40N       0.136000
     28 H7          -3.8180     2.9790    -7.6500 h2         1 40N       0.013700
     29 H8          -4.3910     1.7310    -6.5100 h2         1 40N       0.013700
     30 H9          -1.3700     2.8210    -3.4070 ha         1 40N       0.120000
     31 H10          0.2520     1.6820    -2.0390 hn         1 40N       0.279800
@<TRIPOS>BOND
     1     1     2 1   
     2     2     3 ar  
     3     2     7 ar  
     4     3     4 ar  
     5     3    22 1   
     6     4     5 ar  
     7     4    23 1   
     8     5     6 ar  
     9     5    24 1   
    10     6     7 ar  
    11     6    25 1   
    12     7     8 1   
    13     8     9 2   
    14     8    21 1   
    15     9    10 1   
    16     9    26 1   
    17    10    11 2   
    18    10    12 1   
    19    12    13 ar  
    20    12    20 ar  
    21    13    14 ar  
    22    13    27 1   
    23    14    15 1   
    24    14    18 ar  
    25    15    16 1   
    26    16    17 1   
    27    16    28 1   
    28    16    29 1   
    29    17    18 1   
    30    18    19 ar  
    31    19    20 ar  
    32    19    30 1   
    33    20    21 1   
    34    21    31 1   
@<TRIPOS>SUBSTRUCTURE
     1 40N         1 TEMP              0 ****  ****    0 ROOT
