@<TRIPOS>MOLECULE
molecule
   31    34     1     0     0
SMALL
bcc


@<TRIPOS>ATOM
      1 FAB          0.0000     0.0000     0.0000 f          1 40N      -0.134900
      2 CAN          1.3510     0.0000     0.0000 ca         1 40N       0.145900
      3 CAE          2.0430     0.0000     1.1960 ca         1 40N      -0.167000
      4 CAC          3.4260    -0.0000     1.1980 ca         1 40N      -0.087000
      5 CAD          4.1260    -0.0010     0.0040 ca         1 40N      -0.144000
      6 CAF          3.4490    -0.0010    -1.1980 ca         1 40N      -0.070000
      7 CAR          2.0530    -0.0060    -1.2090 ca         1 40N      -0.124800
      8 CAO          1.3210    -0.0060    -2.4920 cc         1 40N       0.218800
      9 CAG          1.5750    -1.0030    -3.4030 cd         1 40N      -0.319200
     10 CAS          0.8870    -1.0220    -4.6330 c          1 40N       0.589900
     11 OAA          1.0980    -1.9000    -5.4560 o          1 40N      -0.568100
     12 CAU         -0.0920     0.0440    -4.8970 ca         1 40N      -0.202600
     13 CAI         -0.8090     0.0860    -6.0950 ca         1 40N      -0.026000
     14 CAQ         -1.7190     1.0980    -6.3130 ca         1 40N       0.004100
     15 OAM         -2.5340     1.3630    -7.3760 os         1 40N      -0.319900
     16 CAJ         -3.5300     2.2750    -6.8780 c3         1 40N       0.330200
     17 OAL         -2.8660     2.9570    -5.7980 os         1 40N      -0.322900
     18 CAP         -1.9250     2.0820    -5.3390 ca         1 40N       0.110100
     19 CAH         -1.2180     2.0470    -4.1500 ca         1 40N      -0.188000
     20 CAT         -0.2990     1.0320    -3.9170 ca         1 40N       0.190600
     21 NAK          0.4100     0.9800    -2.7350 na         1 40N      -0.591400
     22 H1           1.5010     0.0000     2.1350 ha         1 40N       0.152000
     23 H2           3.9640    -0.0000     2.1380 ha         1 40N       0.142000
     24 H3           5.2090     0.0010     0.0140 ha         1 40N       0.143000
     25 H4           4.0000    -0.0030    -2.1310 ha         1 40N       0.153000
     26 H5           2.2530    -1.8090    -3.1480 ha         1 40N       0.167000
     27 H6          -0.5850    -0.6210    -6.8850 ha         1 40N       0.173000
     28 H7          -3.8180     2.9790    -7.6500 h2         1 40N       0.072200
     29 H8          -4.3910     1.7310    -6.5100 h2         1 40N       0.072200
     30 H9          -1.3700     2.8210    -3.4070 ha         1 40N       0.146000
     31 H10          0.2520     1.6820    -2.0390 hn         1 40N       0.455800
@<TRIPOS>BOND
     1     5     4 ar
     2     5     6 ar
     3     4     3 ar
     4     6     7 ar
     5     3     2 ar
     6     7     2 ar
     7     7     8 1
     8     2     1 1
     9     9     8 2
    10     9    10 1
    11     8    21 1
    12    11    10 2
    13    10    12 1
    14    21    20 1
    15    12    20 ar
    16    12    13 ar
    17    20    19 ar
    18    13    14 ar
    19    19    18 ar
    20    14    18 ar
    21    14    15 1
    22    18    17 1
    23    15    16 1
    24    17    16 1
    25     3    22 1
    26     4    23 1
    27     5    24 1
    28     6    25 1
    29     9    26 1
    30    13    27 1
    31    16    28 1
    32    16    29 1
    33    19    30 1
    34    21    31 1
@<TRIPOS>SUBSTRUCTURE
     1 40N         1 TEMP              0 ****  ****    0 ROOT
