@<TRIPOS>MOLECULE
molecule
   20    20     1     0     0
SMALL
bcc


@<TRIPOS>ATOM
      1 C4           0.0000     0.0000     0.0000 c3         1 40O      -0.098400
      2 C5           1.5300     0.0000     0.0000 c3         1 40O       0.145100
      3 C6           2.0400     0.0000     1.4430 c3         1 40O       0.145100
      4 C1           1.5290    -1.2490     2.1650 c3         1 40O      -0.098400
      5 C2          -0.0010    -1.2480     2.1640 c3         1 40O      -0.081400
      6 C3          -0.5110    -1.2480     0.7220 c3         1 40O      -0.081400
      7 O7           3.4680    -0.0000     1.4430 oh         1 40O      -0.603800
      8 O8           2.0070     1.1650    -0.6740 oh         1 40O      -0.603800
      9 H1          -0.3600     0.8840     0.5120 hc         1 40O       0.051700
     10 H2          -0.3600    -0.0030    -1.0220 hc         1 40O       0.051700
     11 H3           1.8890    -0.8880    -0.5070 h1         1 40O       0.042700
     12 H4           1.6740     0.8840     1.9520 h1         1 40O       0.042700
     13 H5           1.8890    -2.1330     1.6540 hc         1 40O       0.051700
     14 H6           1.8880    -1.2450     3.1870 hc         1 40O       0.051700
     15 H7          -0.3610    -0.3620     2.6730 hc         1 40O       0.043700
     16 H8          -0.3620    -2.1340     2.6730 hc         1 40O       0.043700
     17 H9          -1.5940    -1.2450     0.7230 hc         1 40O       0.043700
     18 H10         -0.1480    -2.1320     0.2120 hc         1 40O       0.043700
     19 H11          3.7830     0.6470     2.0530 ho         1 40O       0.405000
     20 H12          2.3520     0.9220    -1.5170 ho         1 40O       0.405000
@<TRIPOS>BOND
     1     7     3 1   
     2     3     4 1   
     3     3     2 1   
     4     4     5 1   
     5     2     1 1   
     6     2     8 1   
     7     1     6 1   
     8     5     6 1   
     9     1     9 1   
    10     1    10 1   
    11     2    11 1   
    12     3    12 1   
    13     4    13 1   
    14     4    14 1   
    15     5    15 1   
    16     5    16 1   
    17     6    17 1   
    18     6    18 1   
    19     7    19 1   
    20     8    20 1   
@<TRIPOS>SUBSTRUCTURE
     1 40O         1 TEMP              0 ****  ****    0 ROOT
