@<TRIPOS>MOLECULE
40O
   20    20     1     0     0
SMALL
bcc


@<TRIPOS>ATOM
      1 C4         -0.0710   -0.0650   -0.0500 c3        1 40O     -0.093900
      2 C5          1.4510    0.0010   -0.0950 c3        1 40O      0.127100
      3 C6          2.0270    0.0450    1.3340 c3        1 40O      0.127100
      4 C1          1.5520   -1.1510    2.1470 c3        1 40O     -0.093900
      5 C2          0.0400   -1.2220    2.1680 c3        1 40O     -0.077400
      6 C3         -0.5310   -1.2540    0.7650 c3        1 40O     -0.077400
      7 O7          3.4410    0.0390    1.1780 oh        1 40O     -0.607300
      8 O8          1.8000    1.1780   -0.8050 oh        1 40O     -0.607300
      9 H1         -0.4670    0.8860    0.3920 hc        1 40O      0.052450
     10 H2         -0.4610   -0.1380   -1.0970 hc        1 40O      0.052450
     11 H3          1.8710   -0.8970   -0.6290 h1        1 40O      0.046700
     12 H4          1.7140    1.0060    1.8320 h1        1 40O      0.046700
     13 H5          1.9450   -1.0700    3.1940 hc        1 40O      0.052450
     14 H6          1.9750   -2.0890    1.7000 hc        1 40O      0.052450
     15 H7         -0.3680   -0.3330    2.7170 hc        1 40O      0.043950
     16 H8         -0.2820   -2.1390    2.7260 hc        1 40O      0.043950
     17 H9         -0.2160   -2.2030    0.2560 hc        1 40O      0.043950
     18 H10        -1.6510   -1.2560    0.8170 hc        1 40O      0.043950
     19 H11         3.8210    0.0260    2.0630 ho        1 40O      0.411500
     20 H12         2.7620    1.2510   -0.7560 ho        1 40O      0.411500
@<TRIPOS>BOND
     1    1    2 1   
     2    1    6 1   
     3    1    9 1   
     4    1   10 1   
     5    2    3 1   
     6    2    8 1   
     7    2   11 1   
     8    3    4 1   
     9    3    7 1   
    10    3   12 1   
    11    4    5 1   
    12    4   13 1   
    13    4   14 1   
    14    5    6 1   
    15    5   15 1   
    16    5   16 1   
    17    6   17 1   
    18    6   18 1   
    19    7   19 1   
    20    8   20 1   
@<TRIPOS>SUBSTRUCTURE
     1 40O         1 TEMP              0 ****  ****    0 ROOT
