@<TRIPOS>MOLECULE
40Q
   39    41     1     0     0
SMALL
bcc


@<TRIPOS>ATOM
      1 N7           0.0000     0.0000     0.0000 nc         1 40Q      -0.394300
      2 C23          1.3170     0.0000     0.0000 cd         1 40Q      -0.131200
      3 N6           1.9860     0.0010    -1.1980 nz         1 40Q       0.258400
      4 N5           2.0290     0.0000     1.1600 ns         1 40Q       0.053600
      5 C22          1.3890    -0.0030     2.3500 c          1 40Q       0.591700
      6 O5           2.0190    -0.0050     3.3970 o          1 40Q      -0.642500
      7 C21         -0.0100    -0.0050     2.3560 cd         1 40Q      -0.080200
      8 N8          -0.7260    -0.0130     3.5720 nu         1 40Q      -0.226000
      9 C18         -2.1550     0.3390     3.5460 c3         1 40Q       0.055500
     10 C19         -2.8010    -0.3800     2.3530 c3         1 40Q       0.111800
     11 N4          -2.0760     0.0020     1.1340 nu         1 40Q      -0.319000
     12 C20         -0.6900    -0.0010     1.1460 cc         1 40Q       0.081600
     13 C17         -2.3130     1.8530     3.3840 c3         1 40Q       0.159800
     14 N3          -1.5650     2.5380     4.4410 nu         1 40Q      -0.468600
     15 C13         -1.5450     6.6900     4.6170 ca         1 40Q      -0.127600
     16 C26         -0.8390     5.9450     5.5660 ca         1 40Q      -0.030500
     17 C25         -0.8470     4.5760     5.5050 ca         1 40Q      -0.209000
     18 C16         -1.5590     3.9250     4.5000 ca         1 40Q       0.008600
     19 C15         -2.2630     4.6640     3.5530 ca         1 40Q      -0.209000
     20 C14         -2.2580     6.0350     3.6070 ca         1 40Q      -0.030500
     21 O4          -0.8550     8.7930     5.6550 o          1 40Q      -0.879300
     22 H1           1.3250    -0.0270    -1.9490 hn         1 40Q       0.200467
     23 H2           2.5820    -0.8010    -1.2480 hn         1 40Q       0.200467
     24 H4          -0.2730    -0.2520     4.4320 hn         1 40Q       0.318800
     25 H6          -2.6270     0.0130     4.4660 h1         1 40Q       0.063700
     26 H7          -3.7380     0.1390     2.1900 h1         1 40Q       0.050700
     27 H8          -3.1270    -1.2140     2.9640 h1         1 40Q       0.050700
     28 H9          -2.5750     0.2590     0.3050 hn         1 40Q       0.309800
     29 H10         -3.3610     2.1160     3.4540 h1         1 40Q       0.024700
     30 H11         -1.9290     2.1540     2.4170 h1         1 40Q       0.024700
     31 H12         -1.0940     2.0050     5.1450 hn         1 40Q       0.280800
     32 H13         -0.2850     6.4490     6.3490 ha         1 40Q       0.127500
     33 H14         -0.3000     3.9990     6.2410 ha         1 40Q       0.087500
     34 H15         -2.8150     4.1560     2.7710 ha         1 40Q       0.087500
     35 H16         -2.8070     6.6090     2.8700 ha         1 40Q       0.127500
     36 OXT         -2.1610     8.8080     3.8590 o          1 40Q      -0.879300
     37 H17          3.0290     0.0030     1.1310 hn         1 40Q       0.178500
     38 H63          2.5380     0.8320    -1.2710 hn         1 40Q       0.200467
     39 C12         -1.5430     8.1620     4.6820 c          1 40Q       0.971200
@<TRIPOS>BOND
     1     1     2 2   
     2     1    12 1   
     3     2     3 1   
     4     2     4 1   
     5     3    22 1   
     6     3    23 1   
     7     3    38 1   
     8     4     5 1   
     9     4    37 1   
    10     5     6 2   
    11     5     7 1   
    12     7     8 1   
    13     7    12 2   
    14     8     9 1   
    15     8    24 1   
    16     9    10 1   
    17     9    13 1   
    18     9    25 1   
    19    10    11 1   
    20    10    26 1   
    21    10    27 1   
    22    11    12 1   
    23    11    28 1   
    24    13    14 1   
    25    13    29 1   
    26    13    30 1   
    27    14    18 1   
    28    14    31 1   
    29    15    16 ar  
    30    15    20 ar  
    31    15    39 1   
    32    16    17 ar  
    33    16    32 1   
    34    17    18 ar  
    35    17    33 1   
    36    18    19 ar  
    37    19    20 ar  
    38    19    34 1   
    39    20    35 1   
    40    21    39 1   
    41    36    39 1   
@<TRIPOS>SUBSTRUCTURE
     1 40Q         1 TEMP              0 ****  ****    0 ROOT
