@<TRIPOS>MOLECULE
40R
   20    20     1     0     0
SMALL
bcc


@<TRIPOS>ATOM
      1 N1          0.0850   -0.0560   -0.0190 na        1 40R     -0.056400
      2 C2         -1.4150    1.1770   -3.2940 c3        1 40R     -0.080400
      3 N3          1.4200   -0.2170   -0.0050 nc        1 40R     -0.518800
      4 C4         -0.7280   -0.0100   -1.2190 c3        1 40R      0.057300
      5 C5         -0.3840    0.1380    1.2980 cc        1 40R      0.397400
      6 C6          1.7620   -0.1410    1.3130 cd        1 40R      0.497900
      7 C1         -1.2200    2.3860   -4.1730 c3        1 40R     -0.093100
      8 C3         -0.5020    1.2270   -2.0860 c3        1 40R     -0.100400
      9 N2          0.6570    0.0800    2.1550 nd        1 40R     -0.685000
     10 H1         -1.2070    0.2450   -3.8840 hc        1 40R      0.040200
     11 H2         -2.4840    1.1250   -2.9570 hc        1 40R      0.040200
     12 H3         -0.5120   -0.9320   -1.8320 h1        1 40R      0.063700
     13 H4         -1.8040   -0.0460   -0.8870 h1        1 40R      0.063700
     14 H5         -1.4370    0.2930    1.5500 h5        1 40R      0.069100
     15 H6          2.7850   -0.2420    1.6880 h5        1 40R      0.071100
     16 H7         -1.8980    2.3320   -5.0580 hc        1 40R      0.037367
     17 H8         -0.1660    2.4420   -4.5390 hc        1 40R      0.037367
     18 H9         -1.4460    3.3240   -3.6110 hc        1 40R      0.037367
     19 H10        -0.7070    2.1580   -1.4960 hc        1 40R      0.060700
     20 H11         0.5680    1.2700   -2.4200 hc        1 40R      0.060700
@<TRIPOS>BOND
     1    1    3 1   
     2    1    4 1   
     3    1    5 1   
     4    2    7 1   
     5    2    8 1   
     6    2   10 1   
     7    2   11 1   
     8    3    6 2   
     9    4    8 1   
    10    4   12 1   
    11    4   13 1   
    12    5    9 2   
    13    5   14 1   
    14    6    9 1   
    15    6   15 1   
    16    7   16 1   
    17    7   17 1   
    18    7   18 1   
    19    8   19 1   
    20    8   20 1   
@<TRIPOS>SUBSTRUCTURE
     1 40R         1 TEMP              0 ****  ****    0 ROOT
