@<TRIPOS>MOLECULE
molecule
   20    20     1     0     0
SMALL
bcc


@<TRIPOS>ATOM
      1 N1           0.0000     0.0000     0.0000 na         1 40R      -0.069400
      2 C2          -1.4430     1.1830    -3.2980 c3         1 40R      -0.085400
      3 N3           1.4050     0.0000     0.0000 nc         1 40R      -0.550800
      4 C4          -0.8770    -0.0010    -1.1730 c3         1 40R       0.069300
      5 C5          -0.3780    -0.0040     1.2910 cc         1 40R       0.443400
      6 C6           1.7830     0.0000     1.2520 cd         1 40R       0.563900
      7 C1          -1.0910     2.3680    -4.2000 c3         1 40R      -0.089100
      8 C3          -0.5260     1.1830    -2.0740 c3         1 40R      -0.099400
      9 N2           0.7010    -0.0020     2.0300 nd         1 40R      -0.767000
     10 H1          -2.4740     1.2670    -2.9770 hc         1 40R       0.040700
     11 H2          -1.3100     0.2590    -3.8480 hc         1 40R       0.040700
     12 H3          -1.9090     0.0820    -0.8520 h1         1 40R       0.060700
     13 H4          -0.7440    -0.9250    -1.7220 h1         1 40R       0.060700
     14 H5          -1.3980    -0.0060     1.6550 h5         1 40R       0.068100
     15 H6           2.8090     0.0010     1.6000 h5         1 40R       0.078100
     16 H7          -1.2240     3.2920    -3.6510 hc         1 40R       0.036700
     17 H8          -0.0600     2.2840    -4.5220 hc         1 40R       0.036700
     18 H9          -1.7410     2.3670    -5.0670 hc         1 40R       0.036700
     19 H10         -0.6590     2.1070    -1.5240 hc         1 40R       0.062700
     20 H11          0.5050     1.1000    -2.3950 hc         1 40R       0.062700
@<TRIPOS>BOND
     1     3     6 2   
     2     3     1 1   
     3     6     9 1   
     4     1     4 1   
     5     1     5 1   
     6     4     8 1   
     7     9     5 2   
     8     8     2 1   
     9     2     7 1   
    10     2    10 1   
    11     2    11 1   
    12     4    12 1   
    13     4    13 1   
    14     5    14 1   
    15     6    15 1   
    16     7    16 1   
    17     7    17 1   
    18     7    18 1   
    19     8    19 1   
    20     8    20 1   
@<TRIPOS>SUBSTRUCTURE
     1 40R         1 TEMP              0 ****  ****    0 ROOT
