@<TRIPOS>MOLECULE
40S
   22    21     1     0     0
SMALL
bcc


@<TRIPOS>ATOM
      1 C01        -0.1240   -0.0560    0.0320 c3        1 40S     -0.093100
      2 C02         1.3910   -0.0360    0.0200 c3        1 40S     -0.063700
      3 C03         1.9460   -0.0060    1.4370 c3        1 40S     -0.081400
      4 C04         1.7130    1.3400    2.1030 c3        1 40S      0.132400
      5 O05         2.3930    1.3050    3.3490 oh        1 40S     -0.601800
      6 C06         1.9470   -1.2480   -0.7130 c3        1 40S     -0.081400
      7 C07         1.7200   -1.1490   -2.2120 c3        1 40S      0.132400
      8 O08         2.3950   -2.2490   -2.8040 oh        1 40S     -0.601800
      9 H1         -0.5230   -0.0620   -1.0120 hc        1 40S      0.035033
     10 H2         -0.5010   -0.9650    0.5590 hc        1 40S      0.035033
     11 H3         -0.5230    0.8470    0.5540 hc        1 40S      0.035033
     12 H4          1.7330    0.8940   -0.5170 hc        1 40S      0.045700
     13 H5          1.4720   -0.8120    2.0530 hc        1 40S      0.058200
     14 H6          3.0500   -0.2070    1.4200 hc        1 40S      0.058200
     15 H7          0.6170    1.5200    2.2720 h1        1 40S      0.020200
     16 H8          2.1220    2.1730    1.4690 h1        1 40S      0.020200
     17 H9          2.2320    2.1560    3.7730 ho        1 40S      0.399000
     18 H10         3.0500   -1.3360   -0.5260 hc        1 40S      0.058200
     19 H11         1.4680   -2.1840   -0.3260 hc        1 40S      0.058200
     20 H12         2.1360   -0.1860   -2.6140 h1        1 40S      0.020200
     21 H13         0.6250   -1.1990   -2.4580 h1        1 40S      0.020200
     22 H14         2.2400   -2.1890   -3.7530 ho        1 40S      0.399000
@<TRIPOS>BOND
     1    1    2 1   
     2    1    9 1   
     3    1   10 1   
     4    1   11 1   
     5    2    3 1   
     6    2    6 1   
     7    2   12 1   
     8    3    4 1   
     9    3   13 1   
    10    3   14 1   
    11    4    5 1   
    12    4   15 1   
    13    4   16 1   
    14    5   17 1   
    15    6    7 1   
    16    6   18 1   
    17    6   19 1   
    18    7    8 1   
    19    7   20 1   
    20    7   21 1   
    21    8   22 1   
@<TRIPOS>SUBSTRUCTURE
     1 40S         1 TEMP              0 ****  ****    0 ROOT
