@<TRIPOS>MOLECULE
molecule
   22    21     1     0     0
SMALL
bcc


@<TRIPOS>ATOM
      1 C01          0.0000     0.0000     0.0000 c3         1 40S      -0.094100
      2 C02          1.5300     0.0000     0.0000 c3         1 40S      -0.075700
      3 C03          2.0400     0.0000     1.4420 c3         1 40S      -0.075400
      4 C04          1.6350     1.3080     2.1260 c3         1 40S       0.138400
      5 O05          2.1120     1.3080     3.4730 oh         1 40S      -0.611800
      6 C06          2.0400    -1.2500    -0.7210 c3         1 40S      -0.075400
      7 C07          1.6350    -1.1880    -2.1950 c3         1 40S       0.138400
      8 O08          2.1120    -2.3550    -2.8690 oh         1 40S      -0.611800
      9 H1          -0.3610    -0.8840     0.5110 hc         1 40S       0.036367
     10 H2          -0.3610    -0.0000    -1.0210 hc         1 40S       0.036367
     11 H3          -0.3610     0.8850     0.5100 hc         1 40S       0.036367
     12 H4           1.8910     0.8840    -0.5110 hc         1 40S       0.048700
     13 H5           1.6090    -0.8370     1.9790 hc         1 40S       0.056700
     14 H6           3.1200    -0.0890     1.4430 hc         1 40S       0.056700
     15 H7           0.5560     1.3970     2.1250 h1         1 40S       0.019950
     16 H8           2.0670     2.1440     1.5900 h1         1 40S       0.019950
     17 H9           1.9810     2.1610     3.8530 ho         1 40S       0.401000
     18 H10          3.1200    -1.2950    -0.6440 hc         1 40S       0.056700
     19 H11          1.6090    -2.1320    -0.2640 hc         1 40S       0.056700
     20 H12          2.0670    -0.3060    -2.6520 h1         1 40S       0.019950
     21 H13          0.5560    -1.1430    -2.2720 h1         1 40S       0.019950
     22 H14          1.9810    -2.2580    -3.7970 ho         1 40S       0.401000
@<TRIPOS>BOND
     1     8     7 1
     2     7     6 1
     3     6     2 1
     4     1     2 1
     5     2     3 1
     6     3     4 1
     7     4     5 1
     8     1     9 1
     9     1    10 1
    10     1    11 1
    11     2    12 1
    12     3    13 1
    13     3    14 1
    14     4    15 1
    15     4    16 1
    16     5    17 1
    17     6    18 1
    18     6    19 1
    19     7    20 1
    20     7    21 1
    21     8    22 1
@<TRIPOS>SUBSTRUCTURE
     1 40S         1 TEMP              0 ****  ****    0 ROOT
