@<TRIPOS>MOLECULE
molecule
   62    64     1     0     0
SMALL
bcc


@<TRIPOS>ATOM
      1 C13          0.0000     0.0000     0.0000 c          1 40U       0.662100
      2 C18          2.2260     1.4360     1.7740 c3         1 40U      -0.083700
      3 C17         -3.1990     0.1290    -2.2260 cx         1 40U      -0.138900
      4 C16         -3.0610    -1.2090    -1.4960 cx         1 40U      -0.138900
      5 C15         -2.2570     0.0040    -1.0260 cx         1 40U      -0.119700
      6 C19          2.8700     1.4270     3.1620 c3         1 40U      -0.097100
      7 C20          3.1080     2.2300     0.8090 c3         1 40U      -0.097100
      8 C21          7.4770    -2.6700     2.7000 c3         1 40U      -0.086600
      9 C22          6.5810    -0.3430     2.8540 c3         1 40U      -0.086600
     10 C11          3.4470    -0.6000     1.0600 c          1 40U       0.660100
     11 C12          2.0800     0.0000     1.2690 c3         1 40U       0.048700
     12 C            8.3140    -1.4220     7.3910 ca         1 40U       0.030400
     13 C5           7.6390    -0.3690     6.7980 ca         1 40U      -0.123000
     14 C4           6.7460    -0.6130     5.7720 ca         1 40U      -0.111000
     15 C3           6.5290    -1.9060     5.3370 ca         1 40U      -0.115300
     16 C2           7.2030    -2.9580     5.9280 ca         1 40U      -0.111000
     17 C1           8.1000    -2.7160     6.9510 ca         1 40U      -0.123000
     18 C6           5.5550    -2.1700     4.2170 c3         1 40U       0.210100
     19 O2           5.1820    -3.5500     4.2260 oh         1 40U      -0.598800
     20 C10          4.3080    -1.3040     4.4100 c3         1 40U      -0.132400
     21 C9           3.3060    -1.6000     3.2900 c3         1 40U       0.095000
     22 N            3.9750    -1.4140     1.9950 n          1 40U      -0.483800
     23 C8           5.2320    -2.1310     1.7400 c3         1 40U       0.118000
     24 C7           6.2120    -1.8290     2.8780 c3         1 40U      -0.060000
     25 O            4.0710    -0.3510     0.0500 o          1 40U      -0.617100
     26 N1           1.3490     0.0000     0.0000 ns         1 40U      -0.574900
     27 O1          -0.6060    -0.0020     1.0500 o          1 40U      -0.613100
     28 C14         -0.7530     0.0070    -1.3050 c3         1 40U      -0.120400
     29 H1           1.2480     1.8990     1.8330 hc         1 40U       0.075700
     30 H2          -4.1210     0.6680    -2.0430 hc         1 40U       0.073200
     31 H3          -2.7180     0.1850    -3.1950 hc         1 40U       0.073200
     32 H4          -2.4960    -1.9710    -2.0200 hc         1 40U       0.073200
     33 H5          -3.8990    -1.4870    -0.8680 hc         1 40U       0.073200
     34 H6          -2.6210     0.4640    -0.1150 hc         1 40U       0.106700
     35 H7           3.8550     0.9810     3.0990 hc         1 40U       0.040200
     36 H8           2.9570     2.4430     3.5270 hc         1 40U       0.040200
     37 H9           2.2550     0.8500     3.8420 hc         1 40U       0.040200
     38 H10          2.6830     2.1880    -0.1870 hc         1 40U       0.040200
     39 H11          4.1030     1.8030     0.7940 hc         1 40U       0.040200
     40 H12          3.1630     3.2620     1.1350 hc         1 40U       0.040200
     41 H13          7.2510    -3.7100     2.9060 hc         1 40U       0.044200
     42 H14          8.2410    -2.3240     3.3850 hc         1 40U       0.044200
     43 H15          7.8350    -2.5740     1.6820 hc         1 40U       0.044200
     44 H16          7.4970    -0.1890     3.4120 hc         1 40U       0.044200
     45 H17          5.7820     0.2340     3.3050 hc         1 40U       0.044200
     46 H18          6.7240    -0.0230     1.8290 hc         1 40U       0.044200
     47 H19          1.5350    -0.5860     1.9990 h1         1 40U       0.085700
     48 H21          6.2170     0.2110     5.3080 ha         1 40U       0.146500
     49 H22          7.0330    -3.9720     5.5850 ha         1 40U       0.146500
     50 H23          8.6290    -3.5400     7.4150 ha         1 40U       0.146000
     51 H24          4.6830    -3.7360     5.0040 ho         1 40U       0.407000
     52 H25          4.5870    -0.2580     4.3770 hc         1 40U       0.062200
     53 H26          3.8560    -1.5330     5.3680 hc         1 40U       0.062200
     54 H27          2.4670    -0.9200     3.3660 h1         1 40U       0.062700
     55 H28          2.9600    -2.6230     3.3750 h1         1 40U       0.062700
     56 H29          5.0390    -3.1960     1.7010 h1         1 40U       0.073200
     57 H30          5.6540    -1.7980     0.8000 h1         1 40U       0.073200
     58 H31          1.8490    -0.0450    -0.8660 hn         1 40U       0.333500
     59 H32         -0.4920     0.8950    -1.8680 hc         1 40U       0.064200
     60 H33         -0.4910    -0.8740    -1.8780 hc         1 40U       0.064200
     61 H20          7.8090     0.6450     7.1390 ha         1 40U       0.146000
     62 Cl           9.4360    -1.1180     8.6800 cl         1 40U      -0.107400
@<TRIPOS>BOND
     1     3     5 1
     2     3     4 1
     3    28     5 1
     4    28     1 1
     5     5     4 1
     6    27     1 2
     7     1    26 1
     8    26    11 1
     9     9    24 1
    10    11     2 1
    11    11    10 1
    12     6     2 1
    13    62    12 1
    14    17    16 ar
    15    17    12 ar
    16    16    15 ar
    17    12    13 ar
    18     2     7 1
    19    10    25 2
    20    10    22 1
    21    24     8 1
    22    24    23 1
    23    24    18 1
    24    23    22 1
    25    22    21 1
    26    15    18 1
    27    15    14 ar
    28    13    14 ar
    29    18    20 1
    30    18    19 1
    31    20    21 1
    32     2    29 1
    33     3    30 1
    34     3    31 1
    35     4    32 1
    36     4    33 1
    37     5    34 1
    38     6    35 1
    39     6    36 1
    40     6    37 1
    41     7    38 1
    42     7    39 1
    43     7    40 1
    44     8    41 1
    45     8    42 1
    46     8    43 1
    47     9    44 1
    48     9    45 1
    49     9    46 1
    50    11    47 1
    51    13    61 1
    52    14    48 1
    53    16    49 1
    54    17    50 1
    55    19    51 1
    56    20    52 1
    57    20    53 1
    58    21    54 1
    59    21    55 1
    60    23    56 1
    61    23    57 1
    62    26    58 1
    63    28    59 1
    64    28    60 1
@<TRIPOS>SUBSTRUCTURE
     1 40U         1 TEMP              0 ****  ****    0 ROOT
