@<TRIPOS>MOLECULE
40V
   69    73     1     0     0
SMALL
bcc


@<TRIPOS>ATOM
      1 C10          0.0000     0.0000     0.0000 ca         1 40V      -0.207600
      2 C13          2.0830     0.0000     1.2310 ca         1 40V       0.299600
      3 C15          1.3910     0.0000     0.0000 ca         1 40V       0.226800
      4 C17         -1.3170    -3.9540    -8.2720 c3         1 40V       0.037900
      5 C20         -0.1160    -1.1940    -4.0660 c3         1 40V      -0.043400
      6 C21         -0.1310    -2.1730    -6.3630 c3         1 40V       0.143800
      7 C22         -2.2160    -2.0140    -5.1390 c3         1 40V       0.155800
      8 C24         -2.1610    -3.1000    -7.3010 c3         1 40V       0.124500
      9 C26         -2.2940    -1.0080    -2.8520 c3         1 40V       0.054000
     10 C28         -1.0870    -3.2110    -0.7560 c3         1 40V       0.176400
     11 C01         -3.2410    -6.3900   -10.5610 ca         1 40V      -0.103000
     12 C02         -4.4200    -6.4260    -9.8390 ca         1 40V      -0.103000
     13 C03          3.4060     0.0020     3.6290 ca         1 40V      -0.184300
     14 C04          2.0400    -0.0090     3.6620 ca         1 40V      -0.088000
     15 C05         -2.1880    -5.6130   -10.1200 ca         1 40V      -0.082500
     16 C06         -4.5430    -5.6870    -8.6800 ca         1 40V      -0.082500
     17 C07         -0.7130     0.0010     1.2130 ca         1 40V       0.052000
     18 C08          4.0700    -0.0220     2.4040 ca         1 40V       0.407200
     19 C09          1.3450    -0.0100     2.4380 ca         1 40V      -0.060300
     20 C11         -2.3080    -4.8700    -8.9570 ca         1 40V      -0.098300
     21 C12         -3.4870    -4.9060    -8.2370 ca         1 40V      -0.098300
     22 C14         -0.0620    -0.0030     2.4020 ca         1 40V      -0.460200
     23 C16         -0.7320     0.0050    -1.2800 c          1 40V       0.632700
     24 C18         -3.3680    -4.0180    -7.0170 c3         1 40V       0.037900
     25 C19          0.6800    -2.0300    -5.0740 c3         1 40V      -0.020400
     26 C23         -1.4680    -1.8670    -3.8110 c3         1 40V      -0.078700
     27 C25          1.1820    -3.9810    -0.7350 c3         1 40V       0.250700
     28 C27         -1.9480    -1.9670    -0.5280 c3         1 40V       0.015000
     29 N29          3.4190    -0.0060     1.2670 nb         1 40V      -0.553000
     30 N30         -1.4150    -2.8210    -6.0670 n3         1 40V      -0.531600
     31 N31         -1.6320    -0.9610    -1.5460 n          1 40V      -0.135800
     32 N32         -0.8330    -0.0130     3.6670 no         1 40V       1.051200
     33 O33         -0.4410    -0.6710     4.6140 o          1 40V      -0.448000
     34 O34         -0.5240     0.8830    -2.0960 o          1 40V      -0.638100
     35 O35         -1.8590     0.6360     3.7590 o          1 40V      -0.448000
     36 O36          2.0760    -0.0020    -1.1690 oh         1 40V      -0.466100
     37 O37          0.2880    -2.8820    -0.5470 os         1 40V      -0.420600
     38 H1          -0.5880    -4.5360    -7.7220 hc         1 40V       0.027700
     39 H2          -0.8290    -3.3190    -9.0010 hc         1 40V       0.027700
     40 H3          -0.2770    -0.2010    -4.4670 hc         1 40V       0.037200
     41 H4           0.4350    -1.1300    -3.1360 hc         1 40V       0.037200
     42 H5          -0.3130    -1.1910    -6.7840 h1         1 40V       0.012700
     43 H6           0.4220    -2.7770    -7.0710 h1         1 40V       0.012700
     44 H7          -3.1660    -2.5050    -4.9630 h1         1 40V       0.011700
     45 H8          -2.3850    -1.0340    -5.5670 h1         1 40V       0.011700
     46 H9          -2.4820    -2.1830    -7.7800 h1         1 40V       0.018700
     47 H10         -2.3790    -0.0040    -3.2490 h1         1 40V       0.034700
     48 H11         -3.2820    -1.4380    -2.7420 h1         1 40V       0.034700
     49 H12         -1.3830    -3.9870    -0.0600 h1         1 40V       0.006200
     50 H13         -1.2230    -3.5650    -1.7710 h1         1 40V       0.006200
     51 H14         -3.1440    -6.9700   -11.4710 ha         1 40V       0.102500
     52 H15         -5.2470    -7.0350   -10.1840 ha         1 40V       0.102500
     53 H16          3.9710    -0.0120     4.5530 ha         1 40V       0.118000
     54 H17          1.5070     0.0090     4.6050 ha         1 40V       0.152000
     55 H18         -1.2650    -5.5850   -10.6850 ha         1 40V       0.101000
     56 H19         -5.4670    -5.7160    -8.1160 ha         1 40V       0.101000
     57 H20         -1.7970     0.0010     1.1960 ha         1 40V       0.129000
     58 H21          5.1530    -0.0140     2.3910 h4         1 40V      -0.016900
     59 H22         -4.2680    -3.4270    -6.8950 hc         1 40V       0.027700
     60 H23         -3.1830    -4.6180    -6.1340 hc         1 40V       0.027700
     61 H24          0.8710    -3.0110    -4.6570 hc         1 40V       0.018200
     62 H25          1.6180    -1.5340    -5.2910 hc         1 40V       0.018200
     63 H26         -1.3060    -2.8470    -3.3790 hc         1 40V       0.044700
     64 H27          0.7370    -4.6960    -1.4170 h1         1 40V      -0.008300
     65 H28          2.1160    -3.6200    -1.1490 h1         1 40V      -0.008300
     66 H29          1.3710    -4.4610     0.2180 h1         1 40V      -0.008300
     67 H30         -1.7440    -1.5620     0.4560 h1         1 40V       0.039200
     68 H31         -2.9950    -2.2350    -0.5990 h1         1 40V       0.039200
     69 H33          2.6180     0.7680    -1.2170 ho         1 40V       0.429000
@<TRIPOS>BOND
     1     1     3 ar  
     2     1    17 ar  
     3     1    23 1   
     4     2     3 ar  
     5     2    19 ar  
     6     2    29 ar  
     7     3    36 1   
     8     4     8 1   
     9     4    20 1   
    10     4    38 1   
    11     4    39 1   
    12     5    25 1   
    13     5    26 1   
    14     5    40 1   
    15     5    41 1   
    16     6    25 1   
    17     6    30 1   
    18     6    42 1   
    19     6    43 1   
    20     7    26 1   
    21     7    30 1   
    22     7    44 1   
    23     7    45 1   
    24     8    24 1   
    25     8    30 1   
    26     8    46 1   
    27     9    26 1   
    28     9    31 1   
    29     9    47 1   
    30     9    48 1   
    31    10    28 1   
    32    10    37 1   
    33    10    49 1   
    34    10    50 1   
    35    11    12 ar  
    36    11    15 ar  
    37    11    51 1   
    38    12    16 ar  
    39    12    52 1   
    40    13    14 ar  
    41    13    18 ar  
    42    13    53 1   
    43    14    19 ar  
    44    14    54 1   
    45    15    20 ar  
    46    15    55 1   
    47    16    21 ar  
    48    16    56 1   
    49    17    22 ar  
    50    17    57 1   
    51    18    29 ar  
    52    18    58 1   
    53    19    22 ar  
    54    20    21 ar  
    55    21    24 1   
    56    22    32 1   
    57    23    31 1   
    58    23    34 2   
    59    24    59 1   
    60    24    60 1   
    61    25    61 1   
    62    25    62 1   
    63    26    63 1   
    64    27    37 1   
    65    27    64 1   
    66    27    65 1   
    67    27    66 1   
    68    28    31 1   
    69    28    67 1   
    70    28    68 1   
    71    32    33 1   
    72    32    35 1   
    73    36    69 1   
@<TRIPOS>SUBSTRUCTURE
     1 40V         1 TEMP              0 ****  ****    0 ROOT
