@<TRIPOS>MOLECULE
40W
   43    45     1     0     0
SMALL
bcc


@<TRIPOS>ATOM
      1 N1           0.0000     0.0000     0.0000 nz         1 40W       0.200600
      2 C4           4.8280    -0.5220    -6.9270 cc         1 40W      -0.232600
      3 C5           4.8510    -1.2590    -8.1940 c          1 40W       0.660700
      4 C6           4.0260    -2.5390    -8.2120 c3         1 40W      -0.109400
      5 C7           2.6930    -2.2630    -7.5100 c3         1 40W      -0.059000
      6 C8           2.9160    -1.9400    -6.0300 c3         1 40W       0.076900
      7 C10          2.0050    -1.0760    -8.1880 c3         1 40W      -0.000100
      8 C13          3.4830     0.0020    -1.2840 ca         1 40W      -0.012000
      9 C15          1.3870     0.0020    -2.4900 ca         1 40W      -0.012000
     10 C17          1.3480     0.0000     0.0000 c          1 40W       0.357700
     11 O1           1.9570     0.0000     1.0520 o          1 40W      -0.429100
     12 C14          2.0850     0.0010    -1.2800 ca         1 40W      -0.254600
     13 C12          4.1670     0.0020    -2.4780 ca         1 40W      -0.100000
     14 C16          2.0780     0.0020    -3.6810 ca         1 40W      -0.100000
     15 C11          3.4690     0.0030    -3.6810 ca         1 40W      -0.076200
     16 N            4.1670     0.0040    -4.8920 na         1 40W       0.555800
     17 C2           5.1850     0.8670    -5.2090 cd         1 40W      -0.370300
     18 C3           3.9340    -0.8360    -5.9100 cd         1 40W      -0.281600
     19 C1           5.6340     0.5880    -6.4500 cc         1 40W      -0.031300
     20 C            6.7450     1.2860    -7.1900 c3         1 40W       0.091200
     21 H1          -0.3340     0.0280     0.9430 hn         1 40W       0.246800
     22 H2          -0.3340     0.8030    -0.4960 hn         1 40W       0.246800
     23 H3           4.5590    -3.3220    -7.6860 hc         1 40W       0.046200
     24 H4           3.8430    -2.8390    -9.2370 hc         1 40W       0.046200
     25 H5           3.2800    -2.8240    -5.5200 hc         1 40W       0.018700
     26 H6           1.9810    -1.6190    -5.5860 hc         1 40W       0.018700
     27 H7           1.6500    -1.3740    -9.1670 hc         1 40W       0.011533
     28 H8           1.1660    -0.7510    -7.5830 hc         1 40W       0.011533
     29 H9           2.7110    -0.2610    -8.2930 hc         1 40W       0.011533
     30 H10          4.0270     0.0010    -0.3470 ha         1 40W       0.110500
     31 H11          0.3040     0.0010    -2.4920 ha         1 40W       0.110500
     32 H12          5.2510     0.0030    -2.4810 ha         1 40W       0.146500
     33 H13          1.5380     0.0030    -4.6200 ha         1 40W       0.146500
     34 H14          5.5700     1.6480    -4.5640 h4         1 40W       0.158000
     35 H15          1.6530    -3.7420    -8.6730 hc         1 40W       0.011533
     36 H16          0.8350    -3.2900    -7.1710 hc         1 40W       0.011533
     37 H17          2.2630    -4.3330    -7.1210 hc         1 40W       0.011533
     38 H18          7.1980     2.0290    -6.5450 hc         1 40W       0.018033
     39 H19          6.3420     1.7710    -8.0710 hc         1 40W       0.018033
     40 H20          7.4930     0.5610    -7.4870 hc         1 40W       0.018033
     41 C9           1.7950    -3.4970    -7.6270 c3         1 40W      -0.000100
     42 H131        -0.3340    -0.8350    -0.4390 hn         1 40W       0.246800
     43 O            5.4810    -0.8780    -9.1590 o          1 40W      -0.540100
@<TRIPOS>BOND
     1     1    10 1   
     2     1    21 1   
     3     1    22 1   
     4     1    42 1   
     5     2     3 1   
     6     2    18 2   
     7     2    19 1   
     8     3     4 1   
     9     3    43 2   
    10     4     5 1   
    11     4    23 1   
    12     4    24 1   
    13     5     6 1   
    14     5     7 1   
    15     5    41 1   
    16     6    18 1   
    17     6    25 1   
    18     6    26 1   
    19     7    27 1   
    20     7    28 1   
    21     7    29 1   
    22     8    12 ar  
    23     8    13 ar  
    24     8    30 1   
    25     9    12 ar  
    26     9    14 ar  
    27     9    31 1   
    28    10    11 2   
    29    10    12 1   
    30    13    15 ar  
    31    13    32 1   
    32    14    15 ar  
    33    14    33 1   
    34    15    16 1   
    35    16    17 1   
    36    16    18 1   
    37    17    19 2   
    38    17    34 1   
    39    19    20 1   
    40    20    38 1   
    41    20    39 1   
    42    20    40 1   
    43    35    41 1   
    44    36    41 1   
    45    37    41 1   
@<TRIPOS>SUBSTRUCTURE
     1 40W         1 TEMP              0 ****  ****    0 ROOT
