@<TRIPOS>MOLECULE
molecule
   43    45     1     0     0
SMALL
bcc


@<TRIPOS>ATOM
      1 N1           0.0000     0.0000     0.0000 nz         1 40W      -0.678400
      2 C4           4.8280    -0.5220    -6.9270 cc         1 40W      -0.228600
      3 C5           4.8510    -1.2590    -8.1940 c          1 40W       0.605700
      4 C6           4.0260    -2.5390    -8.2120 c3         1 40W      -0.164400
      5 C7           2.6930    -2.2630    -7.5100 c3         1 40W      -0.058000
      6 C8           2.9160    -1.9400    -6.0300 c3         1 40W      -0.003100
      7 C10          2.0050    -1.0760    -8.1880 c3         1 40W      -0.087600
      8 C13          3.4830     0.0020    -1.2840 ca         1 40W      -0.050500
      9 C15          1.3870     0.0020    -2.4900 ca         1 40W      -0.050500
     10 C17          1.3480     0.0000     0.0000 c          1 40W       0.508700
     11 O1           1.9570     0.0000     1.0520 o          1 40W      -0.419100
     12 C14          2.0850     0.0010    -1.2800 ca         1 40W      -0.235600
     13 C12          4.1670     0.0020    -2.4780 ca         1 40W      -0.136000
     14 C16          2.0780     0.0020    -3.6810 ca         1 40W      -0.136000
     15 C11          3.4690     0.0030    -3.6810 ca         1 40W       0.098800
     16 N            4.1670     0.0040    -4.8920 na         1 40W       0.015800
     17 C2           5.1850     0.8670    -5.2090 cd         1 40W      -0.186300
     18 C3           3.9340    -0.8360    -5.9100 cd         1 40W      -0.072600
     19 C1           5.6340     0.5880    -6.4500 cc         1 40W      -0.056300
     20 C            6.7450     1.2860    -7.1900 c3         1 40W      -0.020800
     21 H1          -0.3340     0.0280     0.9430 hn         1 40W       0.477800
     22 H2          -0.3340     0.8030    -0.4960 hn         1 40W       0.477800
     23 H3           4.5590    -3.3220    -7.6860 hc         1 40W       0.078200
     24 H4           3.8430    -2.8390    -9.2370 hc         1 40W       0.078200
     25 H5           3.2800    -2.8240    -5.5200 hc         1 40W       0.051700
     26 H6           1.9810    -1.6190    -5.5860 hc         1 40W       0.051700
     27 H7           1.6500    -1.3740    -9.1670 hc         1 40W       0.042867
     28 H8           1.1660    -0.7510    -7.5830 hc         1 40W       0.042867
     29 H9           2.7110    -0.2610    -8.2930 hc         1 40W       0.042867
     30 H10          4.0270     0.0010    -0.3470 ha         1 40W       0.144500
     31 H11          0.3040     0.0010    -2.4920 ha         1 40W       0.144500
     32 H12          5.2510     0.0030    -2.4810 ha         1 40W       0.179000
     33 H13          1.5380     0.0030    -4.6200 ha         1 40W       0.179000
     34 H14          5.5700     1.6480    -4.5640 h4         1 40W       0.179000
     35 H15          1.6530    -3.7420    -8.6730 hc         1 40W       0.042867
     36 H16          0.8350    -3.2900    -7.1710 hc         1 40W       0.042867
     37 H17          2.2630    -4.3330    -7.1210 hc         1 40W       0.042867
     38 H18          7.1980     2.0290    -6.5450 hc         1 40W       0.056700
     39 H19          6.3420     1.7710    -8.0710 hc         1 40W       0.056700
     40 H20          7.4930     0.5610    -7.4870 hc         1 40W       0.056700
     41 C9           1.7950    -3.4970    -7.6270 c3         1 40W      -0.087600
     42 H131        -0.3340    -0.8350    -0.4390 hn         1 40W       0.477800
     43 O            5.4810    -0.8780    -9.1590 o          1 40W      -0.505100
@<TRIPOS>BOND
     1     7     5 1
     2     1    10 1
     3    41     5 1
     4     5     6 1
     5     5     4 1
     6     8    13 ar
     7     8    12 ar
     8    10    12 1
     9    10    11 2
    10    13    15 ar
    11     6    18 1
    12    12     9 ar
    13     4     3 1
    14     3    43 2
    15     3     2 1
    16    18     2 2
    17    18    16 1
    18    15    16 1
    19    15    14 ar
    20     2    19 1
    21     9    14 ar
    22    16    17 1
    23    19    17 2
    24    19    20 1
    25     1    21 1
    26     1    22 1
    27     4    23 1
    28     4    24 1
    29     6    25 1
    30     6    26 1
    31     7    27 1
    32     7    28 1
    33     7    29 1
    34     8    30 1
    35     9    31 1
    36    13    32 1
    37    14    33 1
    38    17    34 1
    39    41    35 1
    40    41    36 1
    41    41    37 1
    42    20    38 1
    43    20    39 1
    44    20    40 1
    45    42     1 1
@<TRIPOS>SUBSTRUCTURE
     1 40W         1 TEMP              0 ****  ****    0 ROOT
