@<TRIPOS>MOLECULE
40X
   57    60     1     0     0
SMALL
bcc


@<TRIPOS>ATOM
      1 N1           0.0000     0.0000     0.0000 nz         1 40X       0.200600
      2 C4           2.5290    -0.9380     5.9640 c3         1 40X       0.026900
      3 C5           3.7100     0.0000     5.9720 cc         1 40X      -0.365600
      4 C6           4.4980     0.3080     7.0150 cd         1 40X      -0.020300
      5 C7           5.4850     1.2470     6.5060 cd         1 40X      -0.242600
      6 C8           5.2050     1.4350     5.1570 cc         1 40X      -0.262600
      7 C10          4.1760     0.3760     2.4440 ca         1 40X      -0.098000
      8 C13          1.3860     0.3960     2.4570 ca         1 40X      -0.091000
      9 C15          1.3480     0.0000     0.0000 c          1 40X       0.353700
     10 C17          6.7700     3.3560     5.1560 c3         1 40X      -0.061000
     11 C20          5.7630     4.2980     5.8200 c3         1 40X      -0.001600
     12 C21          7.7230     4.1740     4.2820 c3         1 40X      -0.001600
     13 C22          4.3820    -0.2110     8.4250 c3         1 40X       0.082200
     14 C19          6.6000     1.9280     7.1710 c          1 40X       0.664700
     15 C18          7.5750     2.6340     6.2400 c3         1 40X      -0.110400
     16 C16          6.0170     2.3520     4.2780 c3         1 40X       0.076900
     17 N            4.1430     0.6860     4.8570 na         1 40X       0.585800
     18 C9           3.4810     0.5510     3.6270 ca         1 40X      -0.117200
     19 C14          2.0810     0.5880     3.6320 ca         1 40X       0.174100
     20 C12          2.0860     0.2030     1.2610 ca         1 40X      -0.234600
     21 O1           1.9560    -0.1690    -1.0400 o          1 40X      -0.438100
     22 C11          3.4850     0.2030     1.2610 ca         1 40X       0.032400
     23 Cl           4.3520    -0.0130    -0.2280 cl         1 40X       0.103600
     24 O            1.4390     0.8810     4.7890 os         1 40X      -0.336900
     25 C3           1.2380    -0.1310     5.7800 c3         1 40X       0.276100
     26 C2           0.1130    -1.0650     5.3330 c3         1 40X      -0.279400
     27 C1          -1.2040    -0.2880     5.2740 c3         1 40X       0.028600
     28 C           -2.3290    -1.2230     4.8270 c3         1 40X       0.006900
     29 H1          -0.3340     0.8760     0.3500 hn         1 40X       0.246800
     30 H2          -0.3340    -0.7410     0.5840 hn         1 40X       0.246800
     31 H3           2.4880    -1.4740     6.9040 hc         1 40X       0.040200
     32 H4           2.6340    -1.6400     5.1460 hc         1 40X       0.040200
     33 H5           5.2590     0.3750     2.4460 ha         1 40X       0.151000
     34 H6           0.3070     0.4870     2.4440 ha         1 40X       0.103000
     35 H7           5.1190     3.7300     6.4800 hc         1 40X       0.012700
     36 H8           6.2950     5.0490     6.3910 hc         1 40X       0.012700
     37 H9           5.1640     4.7810     5.0570 hc         1 40X       0.012700
     38 H10          7.1560     4.6990     3.5220 hc         1 40X       0.012700
     39 H11          8.2510     4.8920     4.8980 hc         1 40X       0.012700
     40 H12          8.4360     3.5120     3.8070 hc         1 40X       0.012700
     41 H13          3.6640     0.3870     8.9730 hc         1 40X       0.019367
     42 H14          5.3480    -0.1530     8.9120 hc         1 40X       0.019367
     43 H15          4.0500    -1.2430     8.4040 hc         1 40X       0.019367
     44 H16          8.1580     3.3540     6.8010 hc         1 40X       0.045700
     45 H17          8.2310     1.9040     5.7800 hc         1 40X       0.045700
     46 H18          5.3460     2.8940     3.6230 hc         1 40X       0.024700
     47 H19          6.7380     1.7590     3.7280 hc         1 40X       0.024700
     48 H20          0.9720     0.3370     6.7200 h1         1 40X       0.050700
     49 H21          0.1000    -0.6340     6.3260 hc         1 40X       0.081700
     50 H22          0.1240    -2.1290     5.5390 hc         1 40X       0.081700
     51 H23         -1.4330     0.1090     6.2560 hc         1 40X       0.008200
     52 H24         -1.1100     0.5280     4.5680 hc         1 40X       0.008200
     53 H25         -3.2160    -0.6420     4.6070 hc         1 40X       0.004033
     54 H26         -2.5470    -1.9300     5.6180 hc         1 40X       0.004033
     55 H27         -2.0200    -1.7600     3.9380 hc         1 40X       0.004033
     56 H131        -0.3340    -0.1170    -0.9360 hn         1 40X       0.246800
     57 O2           6.7350     1.9300     8.3770 o          1 40X      -0.545100
@<TRIPOS>BOND
     1     1     9 1   
     2     1    29 1   
     3     1    30 1   
     4     1    56 1   
     5     2     3 1   
     6     2    25 1   
     7     2    31 1   
     8     2    32 1   
     9     3     4 2   
    10     3    17 1   
    11     4     5 1   
    12     4    13 1   
    13     5     6 2   
    14     5    14 1   
    15     6    16 1   
    16     6    17 1   
    17     7    18 ar  
    18     7    22 ar  
    19     7    33 1   
    20     8    19 ar  
    21     8    20 ar  
    22     8    34 1   
    23     9    20 1   
    24     9    21 2   
    25    10    11 1   
    26    10    12 1   
    27    10    15 1   
    28    10    16 1   
    29    11    35 1   
    30    11    36 1   
    31    11    37 1   
    32    12    38 1   
    33    12    39 1   
    34    12    40 1   
    35    13    41 1   
    36    13    42 1   
    37    13    43 1   
    38    14    15 1   
    39    14    57 2   
    40    15    44 1   
    41    15    45 1   
    42    16    46 1   
    43    16    47 1   
    44    17    18 1   
    45    18    19 ar  
    46    19    24 1   
    47    20    22 ar  
    48    22    23 1   
    49    24    25 1   
    50    25    26 1   
    51    25    48 1   
    52    26    27 1   
    53    26    49 1   
    54    26    50 1   
    55    27    28 1   
    56    27    51 1   
    57    27    52 1   
    58    28    53 1   
    59    28    54 1   
    60    28    55 1   
@<TRIPOS>SUBSTRUCTURE
     1 40X         1 TEMP              0 ****  ****    0 ROOT
