@<TRIPOS>MOLECULE
molecule
   48    51     1     0     0
SMALL
bcc


@<TRIPOS>ATOM
      1 N1           0.0000     0.0000     0.0000 nz         1 40Y      -0.678400
      2 C4           5.0180     0.4410     6.8810 cc         1 40Y      -0.233600
      3 C5           5.1290     0.0000     8.2750 c          1 40Y       0.606700
      4 C6           3.9550    -0.8190     8.7910 c3         1 40Y      -0.164400
      5 C7           3.5470    -1.8150     7.7000 c3         1 40Y      -0.058000
      6 C8           3.0230    -1.0810     6.4630 c3         1 40Y      -0.004100
      7 C10          4.7650    -2.6560     7.3110 c3         1 40Y      -0.088600
      8 C13          1.3880     0.2200     2.4780 ca         1 40Y      -0.106000
      9 C15          3.4850     0.1150     1.2720 ca         1 40Y      -0.038000
     10 C17          6.3180     1.3240     2.6370 c3         1 40Y       0.152400
     11 C19          1.3480     0.0000     0.0000 c          1 40Y       0.507700
     12 C14          2.0870     0.1140     1.2730 ca         1 40Y      -0.219600
     13 C12          2.0780     0.3420     3.6680 ca         1 40Y      -0.121000
     14 C16          4.1700     0.2220     2.4640 ca         1 40Y       0.125100
     15 O1           5.5270     0.1400     2.5080 os         1 40Y      -0.333900
     16 C18          5.7050     2.2400     3.7040 c3         1 40Y      -0.049100
     17 C2           5.2640     1.4130     4.8840 cd         1 40Y      -0.147600
     18 C11          3.4610     0.3590     3.6630 ca         1 40Y       0.062800
     19 N            4.1990     0.5380     4.8430 na         1 40Y       0.030800
     20 C3           4.0360    -0.0530     6.0280 cd         1 40Y      -0.052600
     21 C1           5.8030     1.3960     6.1140 cc         1 40Y      -0.041300
     22 C            6.9790     2.2020     6.6020 c3         1 40Y      -0.023800
     23 H1          -0.3340    -0.7590     0.5610 hn         1 40Y       0.478133
     24 H2          -0.3340     0.8650     0.3770 hn         1 40Y       0.478133
     25 H3           4.2500    -1.3570     9.6830 hc         1 40Y       0.077700
     26 H4           3.1230    -0.1610     9.0120 hc         1 40Y       0.077700
     27 H5           2.8650    -1.7930     5.6620 hc         1 40Y       0.053200
     28 H6           2.0900    -0.5870     6.7050 hc         1 40Y       0.053200
     29 H7           5.5670    -2.0020     6.9900 hc         1 40Y       0.044367
     30 H8           5.0920    -3.2360     8.1650 hc         1 40Y       0.044367
     31 H9           4.4980    -3.3240     6.5010 hc         1 40Y       0.044367
     32 H10          0.3050     0.2190     2.4780 ha         1 40Y       0.114000
     33 H11          4.0270     0.0330     0.3380 ha         1 40Y       0.183000
     34 H12          7.3160     1.0430     2.9510 h1         1 40Y       0.074200
     35 H13          6.3210     1.8470     1.6890 h1         1 40Y       0.074200
     36 H14          1.5370     0.4250     4.6030 ha         1 40Y       0.173000
     37 H15          4.8490     2.7560     3.2860 hc         1 40Y       0.070700
     38 H16          6.4450     2.9620     4.0270 hc         1 40Y       0.070700
     39 H17          1.5490    -2.1630     8.4140 hc         1 40Y       0.044367
     40 H18          2.7810    -3.1830     9.1720 hc         1 40Y       0.044367
     41 H19          2.2490    -3.5190     7.5190 hc         1 40Y       0.044367
     42 H20          6.8210     2.4830     7.6360 hc         1 40Y       0.056367
     43 H21          7.8820     1.6080     6.5240 hc         1 40Y       0.056367
     44 H22          7.0810     3.0940     5.9970 hc         1 40Y       0.056367
     45 C9           2.4510    -2.7370     8.2410 c3         1 40Y      -0.088600
     46 O2           1.9560    -0.0920    -1.0490 o          1 40Y      -0.418100
     47 H131        -0.3340    -0.1210    -0.9360 hn         1 40Y       0.478133
     48 O            6.0890     0.2700     8.9690 o          1 40Y      -0.509100
@<TRIPOS>BOND
     1     7     5 1   
     2    46    11 2   
     3    45     5 1   
     4    15    14 1   
     5    15    10 1   
     6     5     6 1   
     7     5     4 1   
     8     9    14 ar  
     9     9    12 ar  
    10    11    12 1   
    11    11     1 1   
    12    14    18 ar  
    13     6    20 1   
    14    12     8 ar  
    15     4     3 1   
    16    10    16 1   
    17    20    19 1   
    18    20     2 2   
    19    18    19 1   
    20    18    13 ar  
    21     3    48 2   
    22     3     2 1   
    23    19    17 1   
    24     2    21 1   
    25     8    13 ar  
    26    17    21 2   
    27    17    16 1   
    28    21    22 1   
    29     1    23 1   
    30     1    24 1   
    31     4    25 1   
    32     4    26 1   
    33     6    27 1   
    34     6    28 1   
    35     7    29 1   
    36     7    30 1   
    37     7    31 1   
    38     8    32 1   
    39     9    33 1   
    40    10    34 1   
    41    10    35 1   
    42    13    36 1   
    43    16    37 1   
    44    16    38 1   
    45    45    39 1   
    46    45    40 1   
    47    45    41 1   
    48    22    42 1   
    49    22    43 1   
    50    22    44 1   
    51    47     1 1   
@<TRIPOS>SUBSTRUCTURE
     1 40Y         1 TEMP              0 ****  ****    0 ROOT
