@<TRIPOS>MOLECULE
40Y
   48    51     1     0     0
SMALL
bcc


@<TRIPOS>ATOM
      1 N1           0.0000     0.0000     0.0000 nz         1 40Y       0.200600
      2 C4           5.0180     0.4410     6.8810 cc         1 40Y      -0.237600
      3 C5           5.1290     0.0000     8.2750 c          1 40Y       0.661700
      4 C6           3.9550    -0.8190     8.7910 c3         1 40Y      -0.109400
      5 C7           3.5470    -1.8150     7.7000 c3         1 40Y      -0.059000
      6 C8           3.0230    -1.0810     6.4630 c3         1 40Y       0.080900
      7 C10          4.7650    -2.6560     7.3110 c3         1 40Y      -0.001600
      8 C13          1.3880     0.2200     2.4780 ca         1 40Y      -0.080000
      9 C15          3.4850     0.1150     1.2720 ca         1 40Y      -0.002000
     10 C17          6.3180     1.3240     2.6370 c3         1 40Y       0.230400
     11 C19          1.3480     0.0000     0.0000 c          1 40Y       0.355700
     12 C14          2.0870     0.1140     1.2730 ca         1 40Y      -0.234600
     13 C12          2.0780     0.3420     3.6680 ca         1 40Y      -0.078000
     14 C16          4.1700     0.2220     2.4640 ca         1 40Y       0.144100
     15 O1           5.5270     0.1400     2.5080 os         1 40Y      -0.325900
     16 C18          5.7050     2.2400     3.7040 c3         1 40Y       0.028900
     17 C2           5.2640     1.4130     4.8840 cd         1 40Y      -0.358600
     18 C11          3.4610     0.3590     3.6630 ca         1 40Y      -0.121200
     19 N            4.1990     0.5380     4.8430 na         1 40Y       0.582800
     20 C3           4.0360    -0.0530     6.0280 cd         1 40Y      -0.268600
     21 C1           5.8030     1.3960     6.1140 cc         1 40Y      -0.020300
     22 C            6.9790     2.2020     6.6020 c3         1 40Y       0.086200
     23 H1          -0.3340    -0.7590     0.5610 hn         1 40Y       0.247133
     24 H2          -0.3340     0.8650     0.3770 hn         1 40Y       0.247133
     25 H3           4.2500    -1.3570     9.6830 hc         1 40Y       0.045200
     26 H4           3.1230    -0.1610     9.0120 hc         1 40Y       0.045200
     27 H5           2.8650    -1.7930     5.6620 hc         1 40Y       0.018200
     28 H6           2.0900    -0.5870     6.7050 hc         1 40Y       0.018200
     29 H7           5.5670    -2.0020     6.9900 hc         1 40Y       0.012700
     30 H8           5.0920    -3.2360     8.1650 hc         1 40Y       0.012700
     31 H9           4.4980    -3.3240     6.5010 hc         1 40Y       0.012700
     32 H10          0.3050     0.2190     2.4780 ha         1 40Y       0.084000
     33 H11          4.0270     0.0330     0.3380 ha         1 40Y       0.147000
     34 H12          7.3160     1.0430     2.9510 h1         1 40Y       0.028700
     35 H13          6.3210     1.8470     1.6890 h1         1 40Y       0.028700
     36 H14          1.5370     0.4250     4.6030 ha         1 40Y       0.140000
     37 H15          4.8490     2.7560     3.2860 hc         1 40Y       0.034200
     38 H16          6.4450     2.9620     4.0270 hc         1 40Y       0.034200
     39 H17          1.5490    -2.1630     8.4140 hc         1 40Y       0.012700
     40 H18          2.7810    -3.1830     9.1720 hc         1 40Y       0.012700
     41 H19          2.2490    -3.5190     7.5190 hc         1 40Y       0.012700
     42 H20          6.8210     2.4830     7.6360 hc         1 40Y       0.019033
     43 H21          7.8820     1.6080     6.5240 hc         1 40Y       0.019033
     44 H22          7.0810     3.0940     5.9970 hc         1 40Y       0.019033
     45 C9           2.4510    -2.7370     8.2410 c3         1 40Y      -0.001600
     46 O2           1.9560    -0.0920    -1.0490 o          1 40Y      -0.428100
     47 H131        -0.3340    -0.1210    -0.9360 hn         1 40Y       0.247133
     48 O            6.0890     0.2700     8.9690 o          1 40Y      -0.543100
@<TRIPOS>BOND
     1     1    11 1   
     2     1    23 1   
     3     1    24 1   
     4     1    47 1   
     5     2     3 1   
     6     2    20 2   
     7     2    21 1   
     8     3     4 1   
     9     3    48 2   
    10     4     5 1   
    11     4    25 1   
    12     4    26 1   
    13     5     6 1   
    14     5     7 1   
    15     5    45 1   
    16     6    20 1   
    17     6    27 1   
    18     6    28 1   
    19     7    29 1   
    20     7    30 1   
    21     7    31 1   
    22     8    12 ar  
    23     8    13 ar  
    24     8    32 1   
    25     9    12 ar  
    26     9    14 ar  
    27     9    33 1   
    28    10    15 1   
    29    10    16 1   
    30    10    34 1   
    31    10    35 1   
    32    11    12 1   
    33    11    46 2   
    34    13    18 ar  
    35    13    36 1   
    36    14    15 1   
    37    14    18 ar  
    38    16    17 1   
    39    16    37 1   
    40    16    38 1   
    41    17    19 1   
    42    17    21 2   
    43    18    19 1   
    44    19    20 1   
    45    21    22 1   
    46    22    42 1   
    47    22    43 1   
    48    22    44 1   
    49    39    45 1   
    50    40    45 1   
    51    41    45 1   
@<TRIPOS>SUBSTRUCTURE
     1 40Y         1 TEMP              0 ****  ****    0 ROOT
