@<TRIPOS>MOLECULE
40Z
   59    62     1     0     0
SMALL
bcc


@<TRIPOS>ATOM
      1 N1          0.3830    0.1050   -0.1900 n4        1 40Z      0.082000
      2 C4          0.6010    2.4970    4.2990 c2        1 40Z     -0.140000
      3 C5          0.4030    3.3060    5.5030 c2        1 40Z      0.284000
      4 C6         -0.9930    3.8400    5.6780 c3        1 40Z     -0.202000
      5 C7         -2.1110    2.8540    5.3310 c3        1 40Z     -0.014000
      6 C8         -1.8420    2.1020    4.0630 c2        1 40Z     -0.126000
      7 C10        -3.4100    3.6410    5.1740 c3        1 40Z     -0.208500
      8 C13        -0.9350   -2.3370    2.9690 c2        1 40Z      0.028000
      9 C15        -0.6370   -1.9850    0.5870 c2        1 40Z      0.018000
     10 C17         1.8350    0.2550    0.1840 c3        1 40Z     -0.056000
     11 C20        -0.2950    1.6850   -2.0060 c2        1 40Z     -0.060000
     12 C21        -1.3810    2.1960   -2.6230 c2        1 40Z     -0.094000
     13 C22        -1.4460    2.5300   -4.0220 c2        1 40Z     -0.470000
     14 CL         -0.8770   -3.4460    4.2530 cl        1 40Z      0.025000
     15 C12        -0.7000   -1.0320    3.2110 c2        1 40Z     -0.242000
     16 C14        -1.1500   -2.8170    1.6130 c2        1 40Z     -0.355000
     17 N2         -1.8710   -4.5530   -0.0640 n4        1 40Z     -0.161000
     18 O2         -2.4850   -4.7870    2.1180 o         1 40Z     -0.257000
     19 C16        -0.3490   -0.6620    0.8130 c2        1 40Z     -0.268000
     20 C19        -0.2570    1.4250   -0.5270 c3        1 40Z     -0.062000
     21 O1          0.8940    1.3550   -2.6230 oh        1 40Z     -0.289000
     22 C23        -0.8320    1.9680   -5.0450 c1        1 40Z      0.247000
     23 C18         2.1380    0.9920    1.4270 c2        1 40Z     -0.258000
     24 C2          1.2960    1.3690    2.4060 c2        1 40Z      0.050000
     25 C11        -0.7800   -0.0090    2.1130 c3        1 40Z      0.123000
     26 N          -0.1390    1.2720    2.4040 na        1 40Z     -0.193000
     27 C3         -0.5870    1.9330    3.6110 c2        1 40Z     -0.021000
     28 C9         -2.2760    1.8460    6.4660 c3        1 40Z     -0.208500
     29 O           1.3150    3.5700    6.2920 o         1 40Z     -0.267000
     30 C1          1.7250    2.1530    3.6100 c2        1 40Z     -0.004000
     31 C           3.1250    2.4570    3.9080 c3        1 40Z     -0.194000
     32 H1         -1.0780    4.7460    5.0160 hc        1 40Z      0.124000
     33 H2         -1.1240    4.1830    6.7400 hc        1 40Z      0.124000
     34 H3         -2.7230    1.6770    3.5600 ha        1 40Z      0.142000
     35 H4         -0.4710   -0.6600    4.2220 ha        1 40Z      0.170000
     36 H5         -4.2670    2.9430    5.0170 hc        1 40Z      0.085833
     37 H6         -3.6030    4.2420    6.0950 hc        1 40Z      0.085833
     38 H7         -3.3450    4.3330    4.3010 hc        1 40Z      0.085833
     39 H8         -0.4370   -2.4200   -0.4090 ha        1 40Z      0.092000
     40 H9          0.3860   -0.4470   -1.0630 hn        1 40Z      0.231000
     41 H10         2.2480   -0.7940    0.2700 hx        1 40Z      0.138000
     42 H11        -2.2890    2.4150   -2.0340 ha        1 40Z      0.159000
     43 H12        -2.1420    3.3680   -4.2710 ha        1 40Z      0.220000
     44 H13        -1.8810    0.2620    1.9830 h1        1 40Z      0.114000
     45 H14        -2.3130   -3.8770   -0.6800 hn        1 40Z      0.237000
     46 H15        -2.4080   -5.4260   -0.0790 hn        1 40Z      0.237000
     47 H16        -1.3060    1.4330   -0.1130 hx        1 40Z      0.164500
     48 H17         0.3370    2.2470   -0.0270 hx        1 40Z      0.164500
     49 H18         0.9820    1.8800   -3.4370 ho        1 40Z      0.250000
     50 H19         2.3300    0.7780   -0.6920 hx        1 40Z      0.138000
     51 H20         3.2130    1.2260    1.5340 ha        1 40Z      0.174000
     52 H21        -1.3150    1.3090    6.6510 hc        1 40Z      0.085833
     53 H22        -3.0640    1.0990    6.2080 hc        1 40Z      0.085833
     54 H23        -2.5780    2.3740    7.4030 hc        1 40Z      0.085833
     55 H24         3.2050    3.0350    4.8650 hc        1 40Z      0.111667
     56 H25         3.5800    3.0620    3.0830 hc        1 40Z      0.111667
     57 H26         3.7140    1.5100    4.0150 hc        1 40Z      0.111667
     58 C24        -1.8440   -4.0230    1.3990 c2        1 40Z      0.328000
     59 H231       -0.9230   -4.7360   -0.3840 hn        1 40Z      0.237000
@<TRIPOS>BOND
     1    1   10 1
     2    1   19 1
     3    1   20 1
     4    1   40 1
     5    2    3 1
     6    2   27 1
     7    2   30 1
     8    3    4 1
     9    3   29 1
    10    4    5 1
    11    4   32 1
    12    4   33 1
    13    5    6 1
    14    5    7 1
    15    5   28 1
    16    6   27 1
    17    6   34 1
    18    7   36 1
    19    7   37 1
    20    7   38 1
    21    8   14 1
    22    8   15 1
    23    8   16 1
    24    9   16 1
    25    9   19 1
    26    9   39 1
    27   10   23 1
    28   10   41 1
    29   10   50 1
    30   11   12 1
    31   11   20 1
    32   11   21 1
    33   12   13 1
    34   12   42 1
    35   13   22 1
    36   13   43 1
    37   15   25 1
    38   15   35 1
    39   16   58 1
    40   17   45 1
    41   17   46 1
    42   17   58 1
    43   17   59 1
    44   18   58 1
    45   19   25 1
    46   20   47 1
    47   20   48 1
    48   21   49 1
    49   23   24 1
    50   23   51 1
    51   24   26 1
    52   24   30 1
    53   25   26 1
    54   25   44 1
    55   26   27 1
    56   28   52 1
    57   28   53 1
    58   28   54 1
    59   30   31 1
    60   31   55 1
    61   31   56 1
    62   31   57 1
@<TRIPOS>SUBSTRUCTURE
     1 40Z         1 TEMP              0 ****  ****    0 ROOT
