@<TRIPOS>MOLECULE
410
   57    60     1     0     0
SMALL
bcc


@<TRIPOS>ATOM
      1 C1           0.0000     0.0000     0.0000 ca         1 410      -0.096000
      2 C2           1.3840     0.0000     0.0000 ca         1 410      -0.112500
      3 C3           2.0760     0.0000     1.1930 ca         1 410      -0.137500
      4 C4           1.3780     0.0000     2.4020 ca         1 410      -0.139600
      5 C5          -0.0180     0.0020     2.3940 ca         1 410      -0.137500
      6 C6          -0.6980     0.0010     1.1940 ca         1 410      -0.112500
      7 C7           2.1130     0.0000     3.6840 c          1 410       0.607700
      8 O1           3.1920    -0.5540     3.7660 o          1 410      -0.566100
      9 N1           1.5880     0.6150     4.7620 n          1 410      -0.018000
     10 C8           2.3840     1.4570     5.5450 ca         1 410      -0.065400
     11 C9           1.8150     2.1870     6.5810 ca         1 410      -0.201000
     12 C10          2.5980     3.0210     7.3570 ca         1 410      -0.081000
     13 C11          3.9510     3.1330     7.1090 ca         1 410      -0.123000
     14 C12          4.5330     2.4040     6.0700 ca         1 410       0.104000
     15 C13          3.7440     1.5590     5.2900 ca         1 410      -0.151000
     16 C14          5.9810     2.5240     5.8010 cc         1 410      -0.062100
     17 C15          6.6550     3.6980     5.6470 cd         1 410       0.054100
     18 C16          8.0000     3.5630     5.4040 cd         1 410       0.086100
     19 C17          8.4410     2.2630     5.3560 cc         1 410       0.060300
     20 S1           7.0920     1.1710     5.6390 ss         1 410      -0.241800
     21 C18          9.7770     1.8640     5.1210 c          1 410       0.971200
     22 O2          10.6410     2.7030     4.9410 o          1 410      -0.855300
     23 O3          10.0950     0.5520     5.0970 o          1 410      -0.855300
     24 O4           8.8260     4.6260     5.2250 os         1 410      -0.249900
     25 C19          9.4500     5.1670     6.3910 c3         1 410       0.100400
     26 C20         10.3220     6.3320     5.9990 c          1 410       0.991600
     27 O5          10.4010     6.6650     4.8410 o          1 410      -0.908800
     28 O6          11.0120     6.9980     6.9380 o          1 410      -0.908800
     29 Br1          5.8040     5.3830     5.7590 br         1 410      -0.155100
     30 C21          0.1820     0.4000     5.1150 c3         1 410       0.030700
     31 C22         -0.2440    -1.0040     4.6820 c3         1 410      -0.153400
     32 C23         -1.7110    -1.2280     5.0510 c3         1 410      -0.012400
     33 C24         -2.5810    -0.1890     4.3390 c3         1 410      -0.048400
     34 C25         -2.1550     1.2150     4.7710 c3         1 410      -0.012400
     35 C26         -0.6860     1.4390     4.4020 c3         1 410      -0.153400
     36 H1          -0.5390    -0.0000    -0.9400 ha         1 410       0.094000
     37 H2           1.9250    -0.0010    -0.9390 ha         1 410       0.101000
     38 H3           3.1600    -0.0010     1.1920 ha         1 410       0.189000
     39 H5          -0.5650     0.0030     3.3290 ha         1 410       0.189000
     40 H6          -1.7820     0.0020     1.1860 ha         1 410       0.101000
     41 H9           0.7540     2.1030     6.7820 ha         1 410       0.099000
     42 H10          2.1490     3.5870     8.1640 ha         1 410       0.088000
     43 H11          4.5610     3.7900     7.7180 ha         1 410       0.126000
     44 H13          4.1900     0.9900     4.4830 ha         1 410       0.161000
     45 H19         10.0580     4.4030     6.8620 h1         1 410      -0.008300
     46 H19A         8.6900     5.5020     7.0850 h1         1 410      -0.008300
     47 H21          0.0550     0.5000     6.1860 h1         1 410       0.055700
     48 H22         -0.1230    -1.1030     3.6100 hc         1 410       0.070700
     49 H22A         0.3710    -1.7380     5.1890 hc         1 410       0.070700
     50 H23         -1.8330    -1.1250     6.1220 hc         1 410       0.012950
     51 H23A        -2.0120    -2.2220     4.7420 hc         1 410       0.012950
     52 H24         -2.4560    -0.2890     3.2670 hc         1 410       0.016200
     53 H24A        -3.6190    -0.3480     4.6030 hc         1 410       0.016200
     54 H25         -2.7690     1.9500     4.2640 hc         1 410       0.012950
     55 H25A        -2.2760     1.3140     5.8430 hc         1 410       0.012950
     56 H26         -0.5640     1.3360     3.3310 hc         1 410       0.070700
     57 H26A        -0.3850     2.4330     4.7110 hc         1 410       0.070700
@<TRIPOS>BOND
     1     1     2 ar  
     2     1     6 ar  
     3     1    36 1   
     4     2     3 ar  
     5     2    37 1   
     6     3     4 ar  
     7     3    38 1   
     8     4     5 ar  
     9     4     7 1   
    10     5     6 ar  
    11     5    39 1   
    12     6    40 1   
    13     7     8 2   
    14     7     9 1   
    15     9    10 1   
    16     9    30 1   
    17    10    11 ar  
    18    10    15 ar  
    19    11    12 ar  
    20    11    41 1   
    21    12    13 ar  
    22    12    42 1   
    23    13    14 ar  
    24    13    43 1   
    25    14    15 ar  
    26    14    16 1   
    27    15    44 1   
    28    16    17 2   
    29    16    20 1   
    30    17    18 1   
    31    17    29 1   
    32    18    19 2   
    33    18    24 1   
    34    19    20 1   
    35    19    21 1   
    36    21    22 1   
    37    21    23 1   
    38    24    25 1   
    39    25    26 1   
    40    25    45 1   
    41    25    46 1   
    42    26    27 1   
    43    26    28 1   
    44    30    31 1   
    45    30    35 1   
    46    30    47 1   
    47    31    32 1   
    48    31    48 1   
    49    31    49 1   
    50    32    33 1   
    51    32    50 1   
    52    32    51 1   
    53    33    34 1   
    54    33    52 1   
    55    33    53 1   
    56    34    35 1   
    57    34    54 1   
    58    34    55 1   
    59    35    56 1   
    60    35    57 1   
@<TRIPOS>SUBSTRUCTURE
     1 410         1 TEMP              0 ****  ****    0 ROOT
