@<TRIPOS>MOLECULE
411
   57    60     1     0     0
SMALL
bcc


@<TRIPOS>ATOM
      1 C1           0.0000     0.0000     0.0000 ca         1 411      -0.095000
      2 C2           1.3840     0.0000     0.0000 ca         1 411      -0.082000
      3 C3           2.0770     0.0000     1.1930 ca         1 411      -0.123500
      4 C4           1.3780     0.0000     2.4020 ca         1 411       0.023000
      5 C5          -0.0170     0.0020     2.3940 ca         1 411      -0.123500
      6 C6          -0.6980     0.0060     1.1950 ca         1 411      -0.082000
      7 C7           2.1140     0.0000     3.6830 cc         1 411      -0.248300
      8 C8           3.4020     0.4100     3.8680 cd         1 411      -0.125000
      9 C9           3.7100     0.2470     5.2220 cd         1 411      -0.128000
     10 C10          2.6030    -0.2610     5.8390 cc         1 411      -0.240300
     11 N1           1.6180    -0.4080     4.8960 na         1 411       0.455900
     12 C11          0.2690    -0.9230     5.1410 c3         1 411      -0.141700
     13 C12         -0.6500     0.2200     5.4860 c          1 411       0.575100
     14 O1          -0.2200     1.3530     5.5260 o          1 411      -0.559100
     15 N2          -1.9510    -0.0180     5.7520 ns         1 411      -0.081400
     16 C13         -2.7930     1.0300     6.0690 c2         1 411       0.044800
     17 N3          -2.3310     2.2470     6.1110 n2         1 411      -0.553100
     18 N4          -4.1180     0.7880     6.3400 nz         1 411       0.189400
     19 C14          2.4840    -0.5890     7.2750 ca         1 411       0.002000
     20 C15          3.6320    -0.8230     8.0360 ca         1 411      -0.101000
     21 C16          3.5180    -1.1240     9.3760 ca         1 411      -0.106500
     22 C17          2.2620    -1.1950     9.9700 ca         1 411      -0.074400
     23 C18          1.1190    -0.9630     9.2160 ca         1 411      -0.106500
     24 C19          1.2250    -0.6620     7.8740 ca         1 411      -0.101000
     25 N5           2.1510    -1.5010    11.3290 ns         1 411      -0.045100
     26 C20          3.1000    -1.0880    12.1930 c          1 411       0.592700
     27 O2           4.0030    -0.3720    11.8080 o          1 411      -0.623100
     28 C21          3.0420    -1.5070    13.6100 ca         1 411      -0.167600
     29 C22          4.0230    -1.0810    14.5070 ca         1 411      -0.021000
     30 C23          3.9640    -1.4750    15.8280 ca         1 411      -0.100000
     31 C24          2.9350    -2.2910    16.2640 ca         1 411      -0.049000
     32 C25          1.9590    -2.7170    15.3800 ca         1 411       0.022100
     33 C26          2.0030    -2.3250    14.0570 ca         1 411      -0.072000
     34 Br           0.5530    -3.8260    15.9890 br         1 411      -0.115100
     35 H1          -0.5390     0.0020    -0.9400 ha         1 411       0.111000
     36 H2           1.9240    -0.0030    -0.9390 ha         1 411       0.103000
     37 H3           3.1600    -0.0000     1.1920 ha         1 411       0.097500
     38 H5          -0.5650     0.0040     3.3290 ha         1 411       0.097500
     39 H6          -1.7810     0.0060     1.1880 ha         1 411       0.103000
     40 H8           4.0670     0.7940     3.1040 ha         1 411       0.137000
     41 H9           4.6560     0.4790     5.6960 ha         1 411       0.139000
     42 H11          0.2950    -1.6280     5.9630 h1         1 411       0.081200
     43 H11A        -0.0940    -1.4220     4.2500 h1         1 411       0.081200
     44 HN2         -2.3050    -0.9540     5.7200 hn         1 411       0.187500
     45 HN3         -1.3660     2.4250     5.9140 hn         1 411       0.458400
     46 HN4         -4.5500     0.3620     5.5440 hn         1 411       0.222467
     47 HN4A        -4.1910     0.1730     7.1270 hn         1 411       0.222467
     48 H15          4.6100    -0.7680     7.5740 ha         1 411       0.099000
     49 H16          4.4080    -1.3060     9.9670 ha         1 411       0.122500
     50 H18          0.1430    -1.0200     9.6820 ha         1 411       0.122500
     51 H19          0.3330    -0.4810     7.2870 ha         1 411       0.099000
     52 HN5          1.3660    -2.0240    11.6620 hn         1 411       0.175500
     53 H22          4.7860    -0.3830    14.1840 ha         1 411       0.132000
     54 H23          4.7240    -1.1450    16.5250 ha         1 411       0.118000
     55 H24          2.8940    -2.5980    17.3020 ha         1 411       0.122000
     56 H26          1.2830    -2.7190    13.3510 ha         1 411       0.107000
     57 H43         -4.5780     1.6500     6.5570 hn         1 411       0.222467
@<TRIPOS>BOND
     1     1     2 ar  
     2     1     6 ar  
     3     1    35 1   
     4     2     3 ar  
     5     2    36 1   
     6     3     4 ar  
     7     3    37 1   
     8     4     5 ar  
     9     4     7 1   
    10     5     6 ar  
    11     5    38 1   
    12     6    39 1   
    13     7     8 2   
    14     7    11 1   
    15     8     9 1   
    16     8    40 1   
    17     9    10 2   
    18     9    41 1   
    19    10    11 1   
    20    10    19 1   
    21    11    12 1   
    22    12    13 1   
    23    12    42 1   
    24    12    43 1   
    25    13    14 2   
    26    13    15 1   
    27    15    16 1   
    28    15    44 1   
    29    16    17 2   
    30    16    18 1   
    31    17    45 1   
    32    18    46 1   
    33    18    47 1   
    34    18    57 1   
    35    19    20 ar  
    36    19    24 ar  
    37    20    21 ar  
    38    20    48 1   
    39    21    22 ar  
    40    21    49 1   
    41    22    23 ar  
    42    22    25 1   
    43    23    24 ar  
    44    23    50 1   
    45    24    51 1   
    46    25    26 1   
    47    25    52 1   
    48    26    27 2   
    49    26    28 1   
    50    28    29 ar  
    51    28    33 ar  
    52    29    30 ar  
    53    29    53 1   
    54    30    31 ar  
    55    30    54 1   
    56    31    32 ar  
    57    31    55 1   
    58    32    33 ar  
    59    32    34 1   
    60    33    56 1   
@<TRIPOS>SUBSTRUCTURE
     1 411         1 TEMP              0 ****  ****    0 ROOT
