@<TRIPOS>MOLECULE
413
   70    73     1     0     0
SMALL
bcc


@<TRIPOS>ATOM
      1 O31          0.0000     0.0000     0.0000 o          1 413      -0.691100
      2 C31          1.2280     0.0000     0.0000 c          1 413       0.526100
      3 N4           1.9230     0.0000     1.1400 ns         1 413      -0.069900
      4 C23          1.2530    -0.0570     2.4260 c3         1 413      -0.079000
      5 C24          0.6240    -1.4070     2.5400 ca         1 413      -0.034300
      6 C25          1.2270    -2.5240     1.9390 ca         1 413      -0.088500
      7 C26          0.6450    -3.7910     2.0260 ca         1 413      -0.113500
      8 C27         -0.5440    -3.9420     2.7370 ca         1 413      -0.128000
      9 C28         -1.1610    -2.8360     3.3320 ca         1 413      -0.113500
     10 C29         -0.5770    -1.5650     3.2300 ca         1 413      -0.088500
     11 C30          2.2320     0.0360     3.5550 c          1 413       1.002600
     12 O30          3.4510     0.0120     3.2780 o          1 413      -0.867800
     13 O40          1.7730     0.1260     4.7180 o          1 413      -0.867800
     14 C8           2.0310    -0.0170    -1.2690 c3         1 413       0.090800
     15 N3           1.2120     0.3900    -2.4060 nu         1 413      -0.251600
     16 C5           1.6910     0.8620    -3.5900 ca         1 413       0.114600
     17 C4           3.0510     1.1140    -3.7920 ca         1 413      -0.189000
     18 C3           3.5010     1.5880    -5.0110 ca         1 413      -0.004500
     19 C6           0.8020     1.0630    -4.6590 ca         1 413      -0.189000
     20 C7           1.2410     1.5340    -5.8980 ca         1 413      -0.004500
     21 C2           2.6080     1.7880    -6.0750 ca         1 413      -0.350900
     22 C1           3.1550     2.2980    -7.3710 ce         1 413       0.221800
     23 N2           2.3680     2.4940    -8.4380 n2         1 413      -0.564100
     24 N1           4.4710     2.5550    -7.4300 nz         1 413       0.209400
     25 C9           2.5820    -1.3950    -1.4400 ca         1 413      -0.135300
     26 C14          1.7620    -2.4870    -1.7380 ca         1 413      -0.139000
     27 C13          2.2900    -3.7670    -1.8700 ca         1 413       0.132100
     28 O3           1.4860    -4.8410    -2.1830 os         1 413      -0.308900
     29 C15          0.0560    -4.7230    -2.1670 c3         1 413       0.246700
     30 C12          3.6660    -3.9700    -1.7160 ca         1 413       0.130100
     31 C11          4.4910    -2.8820    -1.4150 ca         1 413      -0.157000
     32 C10          3.9650    -1.6020    -1.2730 ca         1 413      -0.085000
     33 O4           4.1760    -5.2460    -1.8670 os         1 413      -0.307900
     34 C16          5.4560    -5.6420    -1.3700 c3         1 413       0.280700
     35 C17          6.5710    -5.2070    -2.2990 ca         1 413      -0.136300
     36 C22          6.3120    -4.6750    -3.5630 ca         1 413      -0.089000
     37 C21          7.3590    -4.2730    -4.3920 ca         1 413      -0.104500
     38 C20          8.6840    -4.4100    -3.9760 ca         1 413      -0.105000
     39 C19          8.9500    -4.9430    -2.7150 ca         1 413      -0.104500
     40 C18          7.9040    -5.3480    -1.8810 ca         1 413      -0.089000
     41 H4           2.9220     0.0430     1.1070 hn         1 413       0.198500
     42 H23          0.5030     0.7210     2.5040 h1         1 413       0.057700
     43 H25          2.1510    -2.3990     1.3880 ha         1 413       0.107000
     44 H26          1.1210    -4.6460     1.5620 ha         1 413       0.092000
     45 H27         -1.0030    -4.9200     2.8160 ha         1 413       0.088000
     46 H28         -2.0900    -2.9620     3.8760 ha         1 413       0.092000
     47 H29         -1.0550    -0.7090     3.6910 ha         1 413       0.107000
     48 H8           2.8560     0.6780    -1.1680 h1         1 413       0.048700
     49 H3           0.2180     0.3160    -2.3070 hn         1 413       0.316800
     50 HA           3.7520     0.9650    -2.9800 ha         1 413       0.132500
     51 HB           4.5580     1.7820    -5.1540 ha         1 413       0.084000
     52 H6          -0.2530     0.8640    -4.5140 ha         1 413       0.132500
     53 H7           0.5410     1.6840    -6.7110 ha         1 413       0.084000
     54 HN2          1.3880     2.2990    -8.3820 hn         1 413       0.373400
     55 H1N1         4.7100     3.2360    -6.7360 hn         1 413       0.214133
     56 H1N2         4.9840     1.7130    -7.2610 hn         1 413       0.214133
     57 H14          0.6980    -2.3340    -1.8700 ha         1 413       0.128000
     58 H151        -0.3880    -5.7030    -2.2920 h1         1 413      -0.000633
     59 H152        -0.2610    -4.3000    -1.2220 h1         1 413      -0.000633
     60 H153        -0.2620    -4.0760    -2.9760 h1         1 413      -0.000633
     61 H11          5.5560    -3.0390    -1.2910 ha         1 413       0.127000
     62 H10          4.6170    -0.7690    -1.0400 ha         1 413       0.110000
     63 H161         5.4790    -6.7200    -1.2700 h1         1 413       0.027200
     64 H162         5.6110    -5.1930    -0.3960 h1         1 413       0.027200
     65 H22          5.2880    -4.5630    -3.8980 ha         1 413       0.113500
     66 H21          7.1430    -3.8610    -5.3710 ha         1 413       0.098500
     67 H20          9.4960    -4.0970    -4.6210 ha         1 413       0.101000
     68 H19          9.9750    -5.0540    -2.3840 ha         1 413       0.098500
     69 H18          8.1230    -5.7610    -0.9040 ha         1 413       0.113500
     70 H13          4.7020     2.9040    -8.3390 hn         1 413       0.214133
@<TRIPOS>BOND
     1     1     2 2   
     2     2     3 1   
     3     2    14 1   
     4     3     4 1   
     5     3    41 1   
     6     4     5 1   
     7     4    11 1   
     8     4    42 1   
     9     5     6 ar  
    10     5    10 ar  
    11     6     7 ar  
    12     6    43 1   
    13     7     8 ar  
    14     7    44 1   
    15     8     9 ar  
    16     8    45 1   
    17     9    10 ar  
    18     9    46 1   
    19    10    47 1   
    20    11    12 1   
    21    11    13 1   
    22    14    15 1   
    23    14    25 1   
    24    14    48 1   
    25    15    16 1   
    26    15    49 1   
    27    16    17 ar  
    28    16    19 ar  
    29    17    18 ar  
    30    17    50 1   
    31    18    21 ar  
    32    18    51 1   
    33    19    20 ar  
    34    19    52 1   
    35    20    21 ar  
    36    20    53 1   
    37    21    22 1   
    38    22    23 2   
    39    22    24 1   
    40    23    54 1   
    41    24    55 1   
    42    24    56 1   
    43    24    70 1   
    44    25    26 ar  
    45    25    32 ar  
    46    26    27 ar  
    47    26    57 1   
    48    27    28 1   
    49    27    30 ar  
    50    28    29 1   
    51    29    58 1   
    52    29    59 1   
    53    29    60 1   
    54    30    31 ar  
    55    30    33 1   
    56    31    32 ar  
    57    31    61 1   
    58    32    62 1   
    59    33    34 1   
    60    34    35 1   
    61    34    63 1   
    62    34    64 1   
    63    35    36 ar  
    64    35    40 ar  
    65    36    37 ar  
    66    36    65 1   
    67    37    38 ar  
    68    37    66 1   
    69    38    39 ar  
    70    38    67 1   
    71    39    40 ar  
    72    39    68 1   
    73    40    69 1   
@<TRIPOS>SUBSTRUCTURE
     1 413         1 TEMP              0 ****  ****    0 ROOT
