@<TRIPOS>MOLECULE
414
   66    68     1     0     0
SMALL
bcc


@<TRIPOS>ATOM
      1 C37          0.0000     0.0000     0.0000 ca         1 414      -0.076500
      2 C38          1.3820     0.0000     0.0000 ca         1 414      -0.115000
      3 C39          2.0730     0.0000     1.1970 ca         1 414      -0.109000
      4 C40          1.3820     0.0020     2.3940 ca         1 414      -0.115000
      5 C41         -0.0000     0.0030     2.3930 ca         1 414      -0.076500
      6 C36         -0.6910     0.0010     1.1960 ca         1 414      -0.096300
      7 C33         -2.1980     0.0020     1.1960 c3         1 414       0.297700
      8 O32         -2.6840    -1.3670     1.1960 os         1 414      -0.433900
      9 C30         -4.0180    -1.5430     1.1960 c          1 414       0.658100
     10 O31         -4.7580    -0.5790     1.1950 o          1 414      -0.688000
     11 N29         -4.5340    -2.7880     1.1960 ns         1 414      -0.059900
     12 C25         -5.9860    -2.9800     1.1950 c3         1 414      -0.003500
     13 C50         -6.3580    -4.0580     0.1760 c3         1 414      -0.032700
     14 C51         -5.7920    -3.6810    -1.1950 c3         1 414      -0.054900
     15 C52         -6.1640    -4.7590    -2.2140 c3         1 414      -0.016400
     16 C53         -7.6870    -4.8720    -2.3050 c3         1 414      -0.030400
     17 C54         -8.2540    -5.2480    -0.9340 c3         1 414      -0.016400
     18 C55         -7.8810    -4.1700     0.0850 c3         1 414      -0.054900
     19 P24         -6.5310    -3.4990     2.8560 p5         1 414       0.647600
     20 O34         -6.0250    -2.4280     3.9460 o          1 414      -0.650000
     21 O35         -5.9610    -4.8290     3.1680 o          1 414      -0.650000
     22 O23         -8.1380    -3.5830     2.8910 os         1 414      -0.470200
     23 C1          -8.8680    -4.0620     4.0220 c3         1 414       0.195400
     24 C2          -9.6860    -5.2630     3.6210 c          1 414       0.973600
     25 O14        -10.4570    -5.8840     4.5270 o          1 414      -0.889300
     26 O13         -9.6470    -5.6660     2.4830 o          1 414      -0.889300
     27 C3          -9.7840    -2.9770     4.5260 ca         1 414       0.052700
     28 C8          -9.9460    -2.7860     5.8840 ca         1 414      -0.040000
     29 C4         -10.4570    -2.1680     3.6280 ca         1 414      -0.033000
     30 C5         -11.2970    -1.1710     4.0860 ca         1 414      -0.081000
     31 C6         -11.4680    -0.9780     5.4430 ca         1 414      -0.244000
     32 C7         -10.7900    -1.7840     6.3480 ca         1 414      -0.149400
     33 N9         -10.9570    -1.5890     7.7230 nu         1 414      -0.207600
     34 C10        -12.1970    -1.2710     8.2270 c2         1 414       0.269100
     35 N12        -12.3310    -0.9760     9.4900 n2         1 414      -0.754100
     36 N11        -13.2950    -1.2640     7.4000 nz         1 414       0.150400
     37 H37         -0.5420    -0.0010    -0.9380 ha         1 414       0.110000
     38 H38          1.9240    -0.0010    -0.9380 ha         1 414       0.095500
     39 H39          3.1570    -0.0000     1.1980 ha         1 414       0.092000
     40 H40          1.9230     0.0030     3.3330 ha         1 414       0.095500
     41 H41         -0.5420     0.0040     3.3310 ha         1 414       0.110000
     42 H331        -2.5580     0.5120     0.3110 h1         1 414       0.010200
     43 H332        -2.5590     0.5130     2.0800 h1         1 414       0.010200
     44 HN29        -3.9250    -3.5810     1.2380 hn         1 414       0.164500
     45 H25         -6.4730    -2.0490     0.9300 h1         1 414       0.067700
     46 H50         -5.9460    -5.0110     0.4840 hc         1 414       0.052700
     47 H511        -6.2080    -2.7310    -1.5070 hc         1 414       0.031200
     48 H512        -4.7130    -3.6040    -1.1290 hc         1 414       0.031200
     49 H521        -5.7650    -4.4900    -3.1850 hc         1 414       0.006700
     50 H522        -5.7520    -5.7100    -1.9000 hc         1 414       0.006700
     51 H531        -8.1010    -3.9200    -2.6160 hc         1 414      -0.004300
     52 H532        -7.9490    -5.6380    -3.0250 hc         1 414      -0.004300
     53 H541        -9.3320    -5.3250    -0.9990 hc         1 414       0.006700
     54 H542        -7.8370    -6.1980    -0.6220 hc         1 414       0.006700
     55 H551        -8.2800    -4.4390     1.0550 hc         1 414       0.031200
     56 H552        -8.2940    -3.2190    -0.2300 hc         1 414       0.031200
     57 H1          -8.1750    -4.3420     4.8060 h1         1 414       0.031700
     58 H8          -9.4160    -3.4160     6.5870 ha         1 414       0.129000
     59 H4         -10.3240    -2.3160     2.5630 ha         1 414       0.145000
     60 H5         -11.8240    -0.5410     3.3800 ha         1 414       0.095000
     61 H6         -12.1270    -0.1960     5.8010 ha         1 414       0.056000
     62 HN9        -10.1650    -1.6330     8.3330 hn         1 414       0.316800
     63 HN12       -11.5330    -0.9800    10.0930 hn         1 414       0.367400
     64 H111       -13.4000    -0.3560     6.9910 hn         1 414       0.233133
     65 H112       -13.1730    -1.9440     6.6750 hn         1 414       0.233133
     66 H113       -14.1140    -1.4870     7.9310 hn         1 414       0.233133
@<TRIPOS>BOND
     1     1     2 ar  
     2     1     6 ar  
     3     1    37 1   
     4     2     3 ar  
     5     2    38 1   
     6     3     4 ar  
     7     3    39 1   
     8     4     5 ar  
     9     4    40 1   
    10     5     6 ar  
    11     5    41 1   
    12     6     7 1   
    13     7     8 1   
    14     7    42 1   
    15     7    43 1   
    16     8     9 1   
    17     9    10 2   
    18     9    11 1   
    19    11    12 1   
    20    11    44 1   
    21    12    13 1   
    22    12    19 1   
    23    12    45 1   
    24    13    14 1   
    25    13    18 1   
    26    13    46 1   
    27    14    15 1   
    28    14    47 1   
    29    14    48 1   
    30    15    16 1   
    31    15    49 1   
    32    15    50 1   
    33    16    17 1   
    34    16    51 1   
    35    16    52 1   
    36    17    18 1   
    37    17    53 1   
    38    17    54 1   
    39    18    55 1   
    40    18    56 1   
    41    19    20 1   
    42    19    21 1   
    43    19    22 1   
    44    22    23 1   
    45    23    24 1   
    46    23    27 1   
    47    23    57 1   
    48    24    25 1   
    49    24    26 1   
    50    27    28 ar  
    51    27    29 ar  
    52    28    32 ar  
    53    28    58 1   
    54    29    30 ar  
    55    29    59 1   
    56    30    31 ar  
    57    30    60 1   
    58    31    32 ar  
    59    31    61 1   
    60    32    33 1   
    61    33    34 1   
    62    33    62 1   
    63    34    35 2   
    64    34    36 1   
    65    35    63 1   
    66    36    64 1   
    67    36    65 1   
    68    36    66 1   
@<TRIPOS>SUBSTRUCTURE
     1 414         1 TEMP              0 ****  ****    0 ROOT
