@<TRIPOS>MOLECULE
molecule
   46    47     1     0     0
SMALL
bcc


@<TRIPOS>ATOM
      1 CAA          0.0000     0.0000     0.0000 c3         1 415       0.126700
      2 OAS          1.4300     0.0000     0.0000 os         1 415      -0.326900
      3 CAX          2.0460     0.0000     1.2120 ca         1 415       0.151100
      4 CAK          3.4320     0.0010     1.2860 ca         1 415      -0.157000
      5 CAJ          1.2920     0.0050     2.3750 ca         1 415      -0.216000
      6 CAU          1.9210     0.0120     3.6060 ca         1 415       0.066400
      7 ClC          0.9780     0.0240     5.0640 cl         1 415      -0.106400
      8 CAI          3.3040     0.0120     3.6770 ca         1 415      -0.138000
      9 CAV          4.0570     0.0010     2.5180 ca         1 415      -0.043300
     10 CAO          5.5620     0.0010     2.5980 c3         1 415       0.206100
     11 NAP          6.0510    -1.3830     2.6370 n7         1 415      -0.815200
     12 CAM          7.5170    -1.4220     2.7150 c3         1 415       0.160800
     13 CAL          7.9870    -2.8770     2.7530 c3         1 415      -0.103400
     14 CAN          9.5140    -2.9180     2.8360 c3         1 415       0.130000
     15 NAQ          9.9650    -4.3110     2.8720 ns         1 415      -0.602900
     16 CAT         11.2810    -4.5930     2.9450 c          1 415       0.782100
     17 OAB         12.0940    -3.6890     2.9810 o          1 415      -0.647100
     18 NAR         11.6950    -5.8740     2.9790 ns         1 415      -0.492100
     19 CAW         13.0630    -6.1690     2.9570 ca         1 415       0.071600
     20 CAG         13.9660    -5.3300     3.5990 ca         1 415      -0.145500
     21 CAE         15.3150    -5.6230     3.5760 ca         1 415      -0.113000
     22 CAD         15.7680    -6.7500     2.9140 ca         1 415      -0.147000
     23 CAF         14.8730    -7.5870     2.2740 ca         1 415      -0.113000
     24 CAH         13.5210    -7.3020     2.2980 ca         1 415      -0.145500
     25 H1          -0.3610     0.0080    -1.0210 h1         1 415       0.044367
     26 H2          -0.3610    -0.8890     0.5030 h1         1 415       0.044367
     27 H3          -0.3610     0.8800     0.5180 h1         1 415       0.044367
     28 H4           4.0230    -0.0070     0.3780 ha         1 415       0.145000
     29 H5           0.2110    -0.0420     2.3200 ha         1 415       0.148000
     30 H6           3.7960     0.0140     4.6420 ha         1 415       0.151000
     31 H7           5.8760     0.5200     3.4960 h1         1 415       0.043200
     32 H8           5.9700     0.5040     1.7290 h1         1 415       0.043200
     33 H9           5.7470    -1.8670     1.8150 hn         1 415       0.357800
     34 H11          7.9390    -0.9290     1.8470 h1         1 415       0.037200
     35 H12          7.8450    -0.9130     3.6140 h1         1 415       0.037200
     36 H13          7.6600    -3.3860     1.8540 hc         1 415       0.053200
     37 H14          7.5650    -3.3700     3.6210 hc         1 415       0.053200
     38 H15          9.8410    -2.4090     3.7350 h1         1 415       0.054200
     39 H16          9.9360    -2.4240     1.9690 h1         1 415       0.054200
     40 H17          9.2950    -5.0540     2.8440 hn         1 415       0.308500
     41 H18         11.0240    -6.6160     3.0140 hn         1 415       0.316500
     42 H19         13.6110    -4.4480     4.1170 ha         1 415       0.147500
     43 H20         16.0200    -4.9700     4.0770 ha         1 415       0.131000
     44 H21         16.8280    -6.9770     2.8960 ha         1 415       0.128000
     45 H22         15.2300    -8.4700     1.7580 ha         1 415       0.131000
     46 H23         12.8200    -7.9580     1.7960 ha         1 415       0.147500
@<TRIPOS>BOND
     1    22    21 ar  
     2    22    23 ar  
     3    21    20 ar  
     4    23    24 ar  
     5    20    19 ar  
     6    24    19 ar  
     7    19    18 1   
     8    18    16 1   
     9    17    16 2   
    10    16    15 1   
    11    15    14 1   
    12    14    13 1   
    13    13    12 1   
    14    12    11 1   
    15    11    10 1   
    16     1     2 1   
    17     7     6 1   
    18     6     8 ar  
    19     6     5 ar  
    20     8     9 ar  
    21     5     3 ar  
    22     9    10 1   
    23     9     4 ar  
    24     3     4 ar  
    25     3     2 1   
    26     1    25 1   
    27     1    26 1   
    28     1    27 1   
    29     4    28 1   
    30     5    29 1   
    31     8    30 1   
    32    10    31 1   
    33    10    32 1   
    34    11    33 1   
    35    12    34 1   
    36    12    35 1   
    37    13    36 1   
    38    13    37 1   
    39    14    38 1   
    40    14    39 1   
    41    15    40 1   
    42    18    41 1   
    43    20    42 1   
    44    21    43 1   
    45    22    44 1   
    46    23    45 1   
    47    24    46 1   
@<TRIPOS>SUBSTRUCTURE
     1 415         1 TEMP              0 ****  ****    0 ROOT
