@<TRIPOS>MOLECULE
molecule
   35    36     1     0     0
SMALL
bcc


@<TRIPOS>ATOM
      1 C1           0.0000     0.0000     0.0000 ca         1 416      -0.085000
      2 F1           4.5200     2.5650     1.5750 f          1 416      -0.225633
      3 O1           3.4540    -0.0010     1.1960 os         1 416      -0.317900
      4 Cl1         -2.4160     0.0010     1.2120 cl         1 416      -0.136400
      5 C2           1.3990     0.0000     2.4120 ca         1 416      -0.146000
      6 F2           2.5700     2.5360     0.3860 f          1 416      -0.225633
      7 O2           3.7680     0.0310    -3.4370 o          1 416      -0.828300
      8 C3           1.3940     0.0000     0.0000 ca         1 416      -0.093800
      9 F3           4.5550     2.9070    -0.6840 f          1 416      -0.225633
     10 O3           5.5730     0.6630    -2.3050 o          1 416      -0.828300
     11 C4          -0.6800     0.0000     1.2030 ca         1 416       0.002400
     12 C5           0.0170     0.0010     2.4010 ca         1 416      -0.053300
     13 C6           2.0980     0.0000     1.2180 ca         1 416       0.137100
     14 C7           2.1620     0.0000    -1.2540 ce         1 416      -0.099200
     15 C8          -0.7400     0.0010     3.7030 c3         1 416      -0.015700
     16 C9           0.2520    -0.0000     4.8700 c3         1 416      -0.088767
     17 C10         -1.6200     1.2500     3.7830 c3         1 416      -0.088767
     18 C11         -1.6210    -1.2480     3.7830 c3         1 416      -0.088767
     19 C12          3.4760     0.3340    -1.1920 cf         1 416      -0.160400
     20 C13          4.2670     0.3320    -2.3690 c          1 416       0.874800
     21 C14          4.0910     0.7060     0.1320 c3         1 416       0.156300
     22 C15          3.9310     2.2110     0.3570 c3         1 416       0.581900
     23 H1          -0.5420    -0.1320    -0.9290 ha         1 416       0.146000
     24 H2           1.9350     0.0010     3.3540 ha         1 416       0.148000
     25 H7           1.7730    -0.5090    -2.1280 ha         1 416       0.170000
     26 H9          -0.2900    -0.0730     5.8050 hc         1 416       0.037367
     27 H9A          0.9210    -0.8460     4.7740 hc         1 416       0.037367
     28 H9B          0.8260     0.9180     4.8560 hc         1 416       0.037367
     29 H10         -2.4430     1.1580     3.0850 hc         1 416       0.037367
     30 H10A        -1.0300     2.1240     3.5330 hc         1 416       0.037367
     31 H10B        -2.0090     1.3540     4.7890 hc         1 416       0.037367
     32 H11         -1.9700    -1.3790     4.8000 hc         1 416       0.037367
     33 H11A        -1.0450    -2.1150     3.4840 hc         1 416       0.037367
     34 H11B        -2.4710    -1.1330     3.1210 hc         1 416       0.037367
     35 H14          5.1440     0.4530     0.1180 h1         1 416       0.154700
@<TRIPOS>BOND
     1     1     8 ar
     2     1    11 ar
     3     1    23 1
     4     2    22 1
     5     3    13 1
     6     3    21 1
     7     4    11 1
     8     5    12 ar
     9     5    13 ar
    10     5    24 1
    11     6    22 1
    12     7    20 1
    13     8    13 ar
    14     8    14 1
    15     9    22 1
    16    10    20 1
    17    11    12 ar
    18    12    15 1
    19    14    19 2
    20    14    25 1
    21    15    16 1
    22    15    17 1
    23    15    18 1
    24    16    26 1
    25    16    27 1
    26    16    28 1
    27    17    29 1
    28    17    30 1
    29    17    31 1
    30    18    32 1
    31    18    33 1
    32    18    34 1
    33    19    20 1
    34    19    21 1
    35    21    22 1
    36    21    35 1
@<TRIPOS>SUBSTRUCTURE
     1 416         1 TEMP              0 ****  ****    0 ROOT
