@<TRIPOS>MOLECULE
416
   35    36     1     0     0
SMALL
bcc


@<TRIPOS>ATOM
      1 C1         -0.0840   -0.0570   -0.0420 ca        1 416     -0.097000
      2 F1          4.8100    2.5950    1.4650 f         1 416     -0.245300
      3 O1          3.3570    0.3100    1.2360 os        1 416     -0.321900
      4 CL1        -2.4690   -0.2850    1.0390 cl        1 416     -0.132400
      5 C2          1.2940    0.1510    2.3740 ca        1 416     -0.153000
      6 F2          3.2110    3.0930    0.1020 f         1 416     -0.245300
      7 O2          3.8000    0.3110   -3.5920 o         1 416     -0.810300
      8 C3          1.3010    0.0890   -0.0740 ca        1 416     -0.078800
      9 F3          5.2280    2.8070   -0.6430 f         1 416     -0.245300
     10 O3          5.5360    0.0110   -2.2030 o         1 416     -0.810300
     11 C4         -0.7700   -0.1020    1.1770 ca        1 416     -0.004600
     12 C5         -0.0990   -0.0040    2.4110 ca        1 416     -0.043300
     13 C6          1.9800    0.2020    1.1560 ca        1 416      0.125100
     14 C7          2.0840    0.1020   -1.2930 ce        1 416     -0.111200
     15 C8         -0.8010   -0.0530    3.7470 c3        1 416      0.001300
     16 C9          0.1770    0.0740    4.9180 c3        1 416     -0.089433
     17 C10        -1.7890    1.1030    3.8720 c3        1 416     -0.089433
     18 C11        -1.5240   -1.3860    3.9210 c3        1 416     -0.089433
     19 C12         3.3970    0.3850   -1.2380 cf        1 416     -0.181400
     20 C13         4.3190    0.2360   -2.4490 c         1 416      0.917800
     21 C14         4.0480    0.7300    0.0540 c3        1 416      0.166300
     22 C15         4.3090    2.2810    0.2220 c3        1 416      0.602900
     23 H1         -0.6350   -0.1390   -0.9920 ha        1 416      0.149000
     24 H2          1.8960    0.2390    3.2910 ha        1 416      0.150000
     25 H7          1.5990   -0.1480   -2.2480 ha        1 416      0.164000
     26 H9          0.7180    1.0490    4.8770 hc        1 416      0.036256
     27 H9A        -0.3880    0.0300    5.8810 hc        1 416      0.036256
     28 H9B         0.9160   -0.7620    4.9090 hc        1 416      0.036256
     29 H10        -1.2660    2.0740    3.6960 hc        1 416      0.036256
     30 H10A       -2.6220    1.0080    3.1380 hc        1 416      0.036256
     31 H10B       -2.2280    1.1150    4.8990 hc        1 416      0.036256
     32 H11        -0.8060   -2.2300    3.7840 hc        1 416      0.036256
     33 H11A       -1.9580   -1.4480    4.9490 hc        1 416      0.036256
     34 H11B       -2.3530   -1.4990    3.1850 hc        1 416      0.036256
     35 H14         5.0610    0.2260    0.1220 h1        1 416      0.146700
@<TRIPOS>BOND
     1    1    8 ar  
     2    1   11 ar  
     3    1   23 1   
     4    2   22 1   
     5    3   13 1   
     6    3   21 1   
     7    4   11 1   
     8    5   12 ar  
     9    5   13 ar  
    10    5   24 1   
    11    6   22 1   
    12    7   20 1   
    13    8   13 ar  
    14    8   14 1   
    15    9   22 1   
    16   10   20 1   
    17   11   12 ar  
    18   12   15 1   
    19   14   19 2   
    20   14   25 1   
    21   15   16 1   
    22   15   17 1   
    23   15   18 1   
    24   16   26 1   
    25   16   27 1   
    26   16   28 1   
    27   17   29 1   
    28   17   30 1   
    29   17   31 1   
    30   18   32 1   
    31   18   33 1   
    32   18   34 1   
    33   19   20 1   
    34   19   21 1   
    35   21   22 1   
    36   21   35 1   
@<TRIPOS>SUBSTRUCTURE
     1 416         1 TEMP              0 ****  ****    0 ROOT
