@<TRIPOS>MOLECULE
417
   49    52     1     0     0
SMALL
bcc


@<TRIPOS>ATOM
      1 C1         -0.0140    0.3170    0.2270 ca        1 417     -0.164000
      2 C2          1.3860    0.3250    0.3020 ca        1 417      0.096900
      3 C3          2.0650    0.0800    1.5200 ca        1 417     -0.168300
      4 C4          1.3070   -0.2040    2.6560 ca        1 417     -0.112000
      5 C5         -0.0960   -0.2330    2.6050 ca        1 417      0.106900
      6 C6         -0.7660    0.0400    1.3790 ca        1 417      0.153900
      7 C9          3.5530    0.2020    1.5700 c3        1 417     -0.028400
      8 C10         4.0720    0.6710    2.9250 c3        1 417     -0.071400
      9 C11         5.5720    0.8670    2.8950 c3        1 417     -0.128400
     10 C12         6.2730   -0.4580    2.5520 c3        1 417      0.208500
     11 C13         5.7730   -0.9270    1.1680 c3        1 417     -0.111400
     12 C14         4.2570   -1.1300    1.2270 c3        1 417      0.126500
     13 N21         7.7300   -0.4630    2.6060 n3        1 417     -0.748600
     14 C22         8.2560   -0.4090    3.9650 c3        1 417      0.160800
     15 C23         9.7790   -0.6820    4.0340 c3        1 417      0.033300
     16 N24        10.4870    0.0380    3.0140 na        1 417     -0.286700
     17 C25         9.8470    0.5670    1.8850 cc        1 417      0.355800
     18 C26         8.3680    0.4690    1.6800 c3        1 417      0.149500
     19 C33        11.8380    0.3560    2.8350 cc        1 417      0.272800
     20 N34        11.9680    1.0370    1.6500 nd        1 417     -0.266000
     21 N35        10.7920    1.1640    1.0860 nd        1 417     -0.324000
     22 F36        -0.8070   -0.5140    3.7160 f         1 417     -0.092900
     23 F37         2.1010    0.5710   -0.8280 f         1 417     -0.151900
     24 N38         3.7510   -1.6840   -0.0790 n4        1 417     -0.842600
     25 C39        12.9530   -0.0220    3.8000 c3        1 417      0.645600
     26 F40        14.1070    0.6840    3.6300 f         1 417     -0.214967
     27 F41        12.6070    0.1560    5.1180 f         1 417     -0.214967
     28 F42        13.3090   -1.3440    3.7120 f         1 417     -0.214967
     29 F43        -2.1110    0.0280    1.3240 f         1 417     -0.084900
     30 H1         -0.5240    0.5400   -0.7250 ha        1 417      0.194000
     31 H4          1.7930   -0.3960    3.6280 ha        1 417      0.173000
     32 H9          3.8660    0.9750    0.8040 hc        1 417      0.091700
     33 H101        3.5680    1.6400    3.1860 hc        1 417      0.074200
     34 H102        3.8110   -0.0740    3.7230 hc        1 417      0.074200
     35 H111        5.9150    1.2260    3.9010 hc        1 417      0.074200
     36 H112        5.8390    1.6580    2.1460 hc        1 417      0.074200
     37 H12         5.9340   -1.2300    3.3110 h1        1 417      0.067700
     38 H131        6.2870   -1.8870    0.8940 hc        1 417      0.078700
     39 H132        6.0270   -0.1560    0.3940 hc        1 417      0.078700
     40 H14         4.0030   -1.9000    2.0170 hx        1 417      0.111700
     41 H221        7.7550   -1.2110    4.5750 h1        1 417      0.058700
     42 H222        8.0480    0.5870    4.4540 h1        1 417      0.058700
     43 H231       10.1590   -0.3670    5.0490 h1        1 417      0.090200
     44 H232        9.9740   -1.7850    3.9010 h1        1 417      0.090200
     45 H261        7.9460    1.5160    1.7600 h1        1 417      0.067700
     46 H262        8.1830    0.0890    0.6340 h1        1 417      0.067700
     47 H381        2.7450   -1.8680   -0.0040 hn        1 417      0.462467
     48 H382        3.8960   -0.9940   -0.8270 hn        1 417      0.462467
     49 H383        4.2480   -2.5480   -0.3120 hn        1 417      0.462467
@<TRIPOS>BOND
     1    1    2 ar
     2    1    6 ar
     3    1   30 1
     4    2    3 ar
     5    2   23 1
     6    3    4 ar
     7    3    7 1
     8    4    5 ar
     9    4   31 1
    10    5    6 ar
    11    5   22 1
    12    6   29 1
    13    7    8 1
    14    7   12 1
    15    7   32 1
    16    8    9 1
    17    8   33 1
    18    8   34 1
    19    9   10 1
    20    9   35 1
    21    9   36 1
    22   10   11 1
    23   10   13 1
    24   10   37 1
    25   11   12 1
    26   11   38 1
    27   11   39 1
    28   12   24 1
    29   12   40 1
    30   13   14 1
    31   13   18 1
    32   14   15 1
    33   14   41 1
    34   14   42 1
    35   15   16 1
    36   15   43 1
    37   15   44 1
    38   16   17 1
    39   16   19 1
    40   17   18 1
    41   17   21 2
    42   18   45 1
    43   18   46 1
    44   19   20 2
    45   19   25 1
    46   20   21 1
    47   24   47 1
    48   24   48 1
    49   24   49 1
    50   25   26 1
    51   25   27 1
    52   25   28 1
@<TRIPOS>SUBSTRUCTURE
     1 417         1 TEMP              0 ****  ****    0 ROOT
