@<TRIPOS>MOLECULE
molecule
   82    84     1     0     0
SMALL
bcc


@<TRIPOS>ATOM
      1 O6           0.0000     0.0000     0.0000 o          1 418      -0.799800
      2 C24          1.3410     0.0000     0.0000 c          1 418       0.856600
      3 O7           2.0870     0.0000     0.9580 o          1 418      -0.799800
      4 C8           1.8450    -0.0850    -1.4110 c          1 418       0.589100
      5 O5           0.9650    -0.1360    -2.2650 o          1 418      -0.594100
      6 N4           3.2550    -0.0450    -1.6440 n          1 418      -0.316200
      7 C2           3.7600    -0.1230    -2.9420 ca         1 418       0.142600
      8 C3           3.0630    -0.8290    -3.9220 ca         1 418      -0.163500
      9 C4           3.5670    -0.9060    -5.2200 ca         1 418      -0.108000
     10 C5           4.7640    -0.2750    -5.5220 ca         1 418      -0.184300
     11 C6           5.4680     0.4300    -4.5590 ca         1 418      -0.108000
     12 C1           4.9630     0.5080    -3.2610 ca         1 418      -0.163500
     13 C7           5.3110    -0.3590    -6.9260 c3         1 418      -0.027100
     14 C9           6.2320    -1.5660    -7.1320 c3         1 418       0.059700
     15 N1           7.3660    -1.5450    -6.2430 ns         1 418      -0.556900
     16 C10          7.6610    -2.5550    -5.3490 c          1 418       0.765100
     17 O4           7.0130    -3.5860    -5.1950 o          1 418      -0.565000
     18 O23          8.7930    -2.2400    -4.6520 os         1 418      -0.436900
     19 C40          9.2190    -3.2050    -3.6830 c3         1 418       0.189600
     20 C41         10.4590    -2.7050    -3.0200 c2         1 418      -0.189200
     21 C42         10.5650    -2.4790    -1.7060 c2         1 418      -0.193000
     22 C11          6.7760    -1.5800    -8.5560 c          1 418       0.650100
     23 O8           7.9750    -1.4840    -8.8150 o          1 418      -0.602100
     24 N2           5.7710    -1.7630    -9.4960 ns         1 418      -0.601900
     25 C12          6.0210    -1.8640   -10.9150 c3         1 418       0.113000
     26 C13          5.9820    -0.5070   -11.6130 c3         1 418      -0.103400
     27 C15          4.6360     0.1990   -11.4490 c3         1 418      -0.089400
     28 C14          4.6080     1.5310   -12.1870 c3         1 418       0.148400
     29 O1           3.3320     2.1280   -12.0080 os         1 418      -0.343900
     30 C32          3.2870     3.4990   -11.9980 ca         1 418       0.178100
     31 C33          3.7230     4.1900   -13.1240 ca         1 418      -0.196000
     32 C34          3.6850     5.5850   -13.1350 ca         1 418      -0.084000
     33 C35          3.2120     6.2790   -12.0220 ca         1 418      -0.207000
     34 C36          2.7770     5.5800   -10.8970 ca         1 418       0.170100
     35 O13          2.3190     6.2790    -9.8210 oh         1 418      -0.501100
     36 C37          2.8140     4.1850   -10.8850 ca         1 418      -0.140600
     37 C38          2.3590     3.4540    -9.7080 c          1 418       0.666700
     38 O11          1.1960     3.0760    -9.5290 o          1 418      -0.517000
     39 O12          3.3830     3.2380    -8.8280 os         1 418      -0.416900
     40 C39          3.0610     2.5260    -7.6290 c3         1 418       0.121700
     41 C26          4.1580     0.0750    -0.5040 ca         1 418       0.122600
     42 C27          4.4900     1.3420    -0.1140 ca         1 418      -0.142000
     43 C28          5.3510     1.4810     0.9740 ca         1 418      -0.156000
     44 C29          5.8420     0.3500     1.6240 ca         1 418      -0.178000
     45 C30          5.4720    -0.9220     1.1870 ca         1 418      -0.080000
     46 C25          4.6110    -1.0610     0.0980 ca         1 418      -0.055600
     47 C31          4.2440    -2.4040    -0.3340 c          1 418       0.888200
     48 O9           3.1770    -2.7150    -0.8670 o          1 418      -0.843300
     49 O10          5.2250    -3.3130    -0.0860 o          1 418      -0.843300
     50 H3           2.1280    -1.3180    -3.6750 ha         1 418       0.159000
     51 H4           3.0290    -1.4530    -5.9840 ha         1 418       0.104000
     52 H6           6.4020     0.9180    -4.8120 ha         1 418       0.104000
     53 H1           5.5050     1.0570    -2.5000 ha         1 418       0.159000
     54 H71          5.8680     0.5450    -7.1380 hc         1 418       0.033200
     55 H72          4.4820    -0.4300    -7.6200 hc         1 418       0.033200
     56 H9           5.6660    -2.4740    -6.9620 h1         1 418       0.107700
     57 HN1          7.9760    -0.7520    -6.2760 hn         1 418       0.328500
     58 H401         8.4410    -3.3440    -2.9420 h1         1 418       0.064200
     59 H402         9.4250    -4.1480    -4.1750 h1         1 418       0.064200
     60 H41         11.3220    -2.5150    -3.6460 ha         1 418       0.105000
     61 H421        11.4970    -2.1150    -1.2920 ha         1 418       0.122000
     62 H422         9.7180    -2.6610    -1.0550 ha         1 418       0.122000
     63 HN2          4.8260    -1.8310    -9.1730 hn         1 418       0.322500
     64 H121         5.2700    -2.5060   -11.3580 h1         1 418       0.048200
     65 H122         6.9970    -2.3080   -11.0680 h1         1 418       0.048200
     66 H131         6.1750    -0.6520   -12.6700 hc         1 418       0.044700
     67 H132         6.7600     0.1220   -11.1990 hc         1 418       0.044700
     68 H151         3.8520    -0.4380   -11.8410 hc         1 418       0.058700
     69 H152         4.4550     0.3750   -10.3960 hc         1 418       0.058700
     70 H141         5.3750     2.1830   -11.7860 h1         1 418       0.033200
     71 H142         4.7870     1.3650   -13.2420 h1         1 418       0.033200
     72 H33          4.0890     3.6490   -13.9870 ha         1 418       0.140000
     73 H34          4.0230     6.1280   -14.0090 ha         1 418       0.129000
     74 H35          3.1830     7.3620   -12.0320 ha         1 418       0.137000
     75 H13          1.5810     6.8060   -10.0790 ho         1 418       0.426000
     76 H391         2.2620     3.0380    -7.1080 h1         1 418       0.059033
     77 H392         3.9360     2.4790    -6.9910 h1         1 418       0.059033
     78 H393         2.7430     1.5210    -7.8800 h1         1 418       0.059033
     79 H27          4.0980     2.2090    -0.6330 ha         1 418       0.116000
     80 H28          5.6380     2.4690     1.3140 ha         1 418       0.087000
     81 H29          6.5100     0.4590     2.4690 ha         1 418       0.089000
     82 H30          5.8540    -1.8010     1.6930 ha         1 418       0.144000
@<TRIPOS>BOND
     1     1     2 1
     2     2     3 1
     3     2     4 1
     4     4     5 2
     5     4     6 1
     6     6     7 1
     7     6    41 1
     8     7     8 ar
     9     7    12 ar
    10     8     9 ar
    11     8    50 1
    12     9    10 ar
    13     9    51 1
    14    10    11 ar
    15    10    13 1
    16    11    12 ar
    17    11    52 1
    18    12    53 1
    19    13    14 1
    20    13    54 1
    21    13    55 1
    22    14    15 1
    23    14    22 1
    24    14    56 1
    25    15    16 1
    26    15    57 1
    27    16    17 2
    28    16    18 1
    29    18    19 1
    30    19    20 1
    31    19    58 1
    32    19    59 1
    33    20    21 2
    34    20    60 1
    35    21    61 1
    36    21    62 1
    37    22    23 2
    38    22    24 1
    39    24    25 1
    40    24    63 1
    41    25    26 1
    42    25    64 1
    43    25    65 1
    44    26    27 1
    45    26    66 1
    46    26    67 1
    47    27    28 1
    48    27    68 1
    49    27    69 1
    50    28    29 1
    51    28    70 1
    52    28    71 1
    53    29    30 1
    54    30    31 ar
    55    30    36 ar
    56    31    32 ar
    57    31    72 1
    58    32    33 ar
    59    32    73 1
    60    33    34 ar
    61    33    74 1
    62    34    35 1
    63    34    36 ar
    64    35    75 1
    65    36    37 1
    66    37    38 2
    67    37    39 1
    68    39    40 1
    69    40    76 1
    70    40    77 1
    71    40    78 1
    72    41    42 ar
    73    41    46 ar
    74    42    43 ar
    75    42    79 1
    76    43    44 ar
    77    43    80 1
    78    44    45 ar
    79    44    81 1
    80    45    46 ar
    81    45    82 1
    82    46    47 1
    83    47    48 1
    84    47    49 1
@<TRIPOS>SUBSTRUCTURE
     1 418         1 TEMP              0 ****  ****    0 ROOT
