@<TRIPOS>MOLECULE
419
   80    83     1     0     0
SMALL
bcc


@<TRIPOS>ATOM
      1 O6           0.0000     0.0000     0.0000 o          1 419      -0.631100
      2 C5           1.2130     0.0000     0.0000 c          1 419       0.572100
      3 C3           1.9670     0.0000     1.3050 c3         1 419       0.043500
      4 N2           1.0120    -0.0010     2.4210 n7         1 419      -0.546200
      5 C1           1.6150     0.5790     3.6290 c3         1 419       0.171100
      6 C4           2.8460    -1.2490     1.3850 c3         1 419      -0.031100
      7 N7           1.8870    -0.0050    -1.1670 ns         1 419      -0.183900
      8 C8           1.1540    -0.0120    -2.4360 c3         1 419      -0.048300
      9 C9           0.7890     1.4240    -2.8220 c3         1 419      -0.070000
     10 C10          2.0690     2.2270    -3.0670 c3         1 419      -0.016433
     11 C11         -0.0560     1.4110    -4.0960 c3         1 419      -0.016433
     12 C12         -0.0090     2.0700    -1.6870 c3         1 419      -0.016433
     13 C13          2.0190    -0.6160    -3.5120 c          1 419       0.604100
     14 O14          3.2260    -0.5320    -3.4400 o          1 419      -0.653100
     15 N15          1.4490    -1.2510    -4.5560 n          1 419      -0.142800
     16 C16          2.1640    -1.8030    -5.7150 c3         1 419       0.022700
     17 C19          0.0080    -1.5130    -4.7190 c3         1 419       0.018000
     18 C18         -0.0660    -2.7630    -5.6290 c3         1 419      -0.029400
     19 C17          1.1150    -2.5280    -6.6000 c3         1 419      -0.054700
     20 C20          0.6940    -1.4610    -7.6390 c3         1 419      -0.028400
     21 C21          2.0220    -0.7200    -7.9330 c3         1 419      -0.039400
     22 C22          2.7260    -0.6500    -6.5620 c3         1 419       0.001700
     23 N25          4.1720    -0.8130    -6.7330 ns         1 419      -0.177900
     24 C26          4.9480     0.2620    -6.9770 c          1 419       0.580100
     25 O27          4.4490     1.3650    -7.0560 o          1 419      -0.644100
     26 C28          6.4350     0.0950    -7.1540 c3         1 419      -0.000100
     27 C29          7.0640     1.4380    -7.4140 ca         1 419      -0.084800
     28 C30          7.8580     1.6260    -8.5300 ca         1 419      -0.088250
     29 C31          8.4360     2.8590    -8.7690 ca         1 419      -0.099500
     30 C32          8.2200     3.9050    -7.8910 ca         1 419      -0.100500
     31 C33          7.4250     3.7180    -6.7750 ca         1 419      -0.099500
     32 C34          6.8440     2.4860    -6.5390 ca         1 419      -0.088250
     33 C35          7.0240    -0.5020    -5.9020 ca         1 419      -0.084800
     34 C36          7.8140    -1.6340    -5.9810 ca         1 419      -0.088250
     35 C37          8.3550    -2.1820    -4.8330 ca         1 419      -0.099500
     36 C38          8.1060    -1.5980    -3.6050 ca         1 419      -0.100500
     37 C39          7.3170    -0.4660    -3.5250 ca         1 419      -0.099500
     38 C40          6.7800     0.0840    -4.6740 ca         1 419      -0.088250
     39 H3           2.5900     0.8850     1.3620 h1         1 419       0.046700
     40 HN2          0.7210    -0.9390     2.6110 hn         1 419       0.260800
     41 H1           2.3800    -0.0880     4.0070 h1         1 419      -0.001300
     42 H1A          0.8510     0.7160     4.3840 h1         1 419      -0.001300
     43 H1B          2.0590     1.5370     3.3870 h1         1 419      -0.001300
     44 H4           3.0540    -1.4780     2.4240 hc         1 419       0.013367
     45 H4A          2.3300    -2.0840     0.9280 hc         1 419       0.013367
     46 H4B          3.7780    -1.0700     0.8620 hc         1 419       0.013367
     47 HN7          2.8870    -0.0280    -1.1670 hn         1 419       0.198500
     48 H8           0.2500    -0.5980    -2.3280 h1         1 419       0.066700
     49 H10          2.6110     1.7970    -3.9000 hc         1 419       0.016367
     50 H10A         2.6900     2.1970    -2.1790 hc         1 419       0.016367
     51 H10B         1.8130     3.2540    -3.2940 hc         1 419       0.016367
     52 H11         -0.9020     0.7490    -3.9620 hc         1 419       0.016367
     53 H11A         0.5480     1.0620    -4.9260 hc         1 419       0.016367
     54 H11B        -0.4110     2.4130    -4.3040 hc         1 419       0.016367
     55 H12          0.6510     2.2770    -0.8530 hc         1 419       0.016367
     56 H12A        -0.7940     1.3960    -1.3680 hc         1 419       0.016367
     57 H12B        -0.4480     2.9960    -2.0380 hc         1 419       0.016367
     58 H16          2.9500    -2.4810    -5.4050 h1         1 419       0.046700
     59 H19         -0.4470    -1.7200    -3.7580 h1         1 419       0.037200
     60 H19A        -0.4750    -0.6700    -5.1980 h1         1 419       0.037200
     61 H18          0.0860    -3.6680    -5.0520 hc         1 419       0.029200
     62 H18A        -1.0060    -2.7920    -6.1670 hc         1 419       0.029200
     63 H17          1.4920    -3.4390    -7.0470 hc         1 419       0.047700
     64 H20          0.3140    -1.9330    -8.5370 hc         1 419       0.024700
     65 H20A        -0.0360    -0.7820    -7.2160 hc         1 419       0.024700
     66 H21          1.8240     0.2770    -8.3070 hc         1 419       0.028700
     67 H21A         2.6220    -1.2850    -8.6370 hc         1 419       0.028700
     68 H22          2.5090     0.2980    -6.0850 h1         1 419       0.072700
     69 HN25         4.5840    -1.7230    -6.6690 hn         1 419       0.178500
     70 H28          6.6270    -0.5630    -7.9930 hc         1 419       0.041700
     71 H30          8.0270     0.8060    -9.2180 ha         1 419       0.112750
     72 H31          9.0580     3.0060    -9.6430 ha         1 419       0.101750
     73 H32          8.6740     4.8710    -8.0770 ha         1 419       0.100000
     74 H33          7.2550     4.5390    -6.0890 ha         1 419       0.101750
     75 H34          6.2220     2.3400    -5.6640 ha         1 419       0.112750
     76 H36          8.0090    -2.0920    -6.9430 ha         1 419       0.112750
     77 H37          8.9740    -3.0690    -4.8960 ha         1 419       0.101750
     78 H38          8.5290    -2.0280    -2.7050 ha         1 419       0.100000
     79 H39          7.1240    -0.0070    -2.5630 ha         1 419       0.101750
     80 H40          6.1620     0.9720    -4.6110 ha         1 419       0.112750
@<TRIPOS>BOND
     1     1     2 2   
     2     2     3 1   
     3     2     7 1   
     4     3     4 1   
     5     3     6 1   
     6     3    39 1   
     7     4     5 1   
     8     4    40 1   
     9     5    41 1   
    10     5    42 1   
    11     5    43 1   
    12     6    44 1   
    13     6    45 1   
    14     6    46 1   
    15     7     8 1   
    16     7    47 1   
    17     8     9 1   
    18     8    13 1   
    19     8    48 1   
    20     9    10 1   
    21     9    11 1   
    22     9    12 1   
    23    10    49 1   
    24    10    50 1   
    25    10    51 1   
    26    11    52 1   
    27    11    53 1   
    28    11    54 1   
    29    12    55 1   
    30    12    56 1   
    31    12    57 1   
    32    13    14 2   
    33    13    15 1   
    34    15    16 1   
    35    15    17 1   
    36    16    19 1   
    37    16    22 1   
    38    16    58 1   
    39    17    18 1   
    40    17    59 1   
    41    17    60 1   
    42    18    19 1   
    43    18    61 1   
    44    18    62 1   
    45    19    20 1   
    46    19    63 1   
    47    20    21 1   
    48    20    64 1   
    49    20    65 1   
    50    21    22 1   
    51    21    66 1   
    52    21    67 1   
    53    22    23 1   
    54    22    68 1   
    55    23    24 1   
    56    23    69 1   
    57    24    25 2   
    58    24    26 1   
    59    26    27 1   
    60    26    33 1   
    61    26    70 1   
    62    27    28 ar  
    63    27    32 ar  
    64    28    29 ar  
    65    28    71 1   
    66    29    30 ar  
    67    29    72 1   
    68    30    31 ar  
    69    30    73 1   
    70    31    32 ar  
    71    31    74 1   
    72    32    75 1   
    73    33    34 ar  
    74    33    38 ar  
    75    34    35 ar  
    76    34    76 1   
    77    35    36 ar  
    78    35    77 1   
    79    36    37 ar  
    80    36    78 1   
    81    37    38 ar  
    82    37    79 1   
    83    38    80 1   
@<TRIPOS>SUBSTRUCTURE
     1 419         1 TEMP              0 ****  ****    0 ROOT
