@<TRIPOS>MOLECULE
molecule
   80    83     1     0     0
SMALL
bcc


@<TRIPOS>ATOM
      1 O6           0.0000     0.0000     0.0000 o          1 419      -0.590100
      2 C5           1.2130     0.0000     0.0000 c          1 419       0.662100
      3 C3           1.9670     0.0000     1.3050 c3         1 419       0.091500
      4 N2           1.0120    -0.0010     2.4210 n7         1 419      -0.789200
      5 C1           1.6150     0.5790     3.6290 c3         1 419       0.147100
      6 C4           2.8460    -1.2490     1.3850 c3         1 419      -0.130100
      7 N7           1.8870    -0.0050    -1.1670 ns         1 419      -0.575900
      8 C8           1.1540    -0.0120    -2.4360 c3         1 419       0.059700
      9 C9           0.7890     1.4240    -2.8220 c3         1 419      -0.075000
     10 C10          2.0690     2.2270    -3.0670 c3         1 419      -0.088100
     11 C11         -0.0560     1.4110    -4.0960 c3         1 419      -0.088100
     12 C12         -0.0090     2.0700    -1.6870 c3         1 419      -0.088100
     13 C13          2.0190    -0.6160    -3.5120 c          1 419       0.675100
     14 O14          3.2260    -0.5320    -3.4400 o          1 419      -0.609100
     15 N15          1.4490    -1.2510    -4.5560 n          1 419      -0.487800
     16 C16          2.1640    -1.8030    -5.7150 c3         1 419       0.102700
     17 C19          0.0080    -1.5130    -4.7190 c3         1 419       0.085000
     18 C18         -0.0660    -2.7630    -5.6290 c3         1 419      -0.093400
     19 C17          1.1150    -2.5280    -6.6000 c3         1 419      -0.085700
     20 C20          0.6940    -1.4610    -7.6390 c3         1 419      -0.083400
     21 C21          2.0220    -0.7200    -7.9330 c3         1 419      -0.098400
     22 C22          2.7260    -0.6500    -6.5620 c3         1 419       0.106700
     23 N25          4.1720    -0.8130    -6.7330 ns         1 419      -0.570900
     24 C26          4.9480     0.2620    -6.9770 c          1 419       0.668100
     25 O27          4.4490     1.3650    -7.0560 o          1 419      -0.604100
     26 C28          6.4350     0.0950    -7.1540 c3         1 419      -0.047100
     27 C29          7.0640     1.4380    -7.4140 ca         1 419      -0.077800
     28 C30          7.8580     1.6260    -8.5300 ca         1 419      -0.108500
     29 C31          8.4360     2.8590    -8.7690 ca         1 419      -0.128000
     30 C32          8.2200     3.9050    -7.8910 ca         1 419      -0.125000
     31 C33          7.4250     3.7180    -6.7750 ca         1 419      -0.128000
     32 C34          6.8440     2.4860    -6.5390 ca         1 419      -0.108500
     33 C35          7.0240    -0.5020    -5.9020 ca         1 419      -0.077800
     34 C36          7.8140    -1.6340    -5.9810 ca         1 419      -0.108500
     35 C37          8.3550    -2.1820    -4.8330 ca         1 419      -0.128000
     36 C38          8.1060    -1.5980    -3.6050 ca         1 419      -0.125000
     37 C39          7.3170    -0.4660    -3.5250 ca         1 419      -0.128000
     38 C40          6.7800     0.0840    -4.6740 ca         1 419      -0.108500
     39 H3           2.5900     0.8850     1.3620 h1         1 419       0.074700
     40 HN2          0.7210    -0.9390     2.6110 hn         1 419       0.364800
     41 H1           2.3800    -0.0880     4.0070 h1         1 419       0.032033
     42 H1A          0.8510     0.7160     4.3840 h1         1 419       0.032033
     43 H1B          2.0590     1.5370     3.3870 h1         1 419       0.032033
     44 H4           3.0540    -1.4780     2.4240 hc         1 419       0.045033
     45 H4A          2.3300    -2.0840     0.9280 hc         1 419       0.045033
     46 H4B          3.7780    -1.0700     0.8620 hc         1 419       0.045033
     47 HN7          2.8870    -0.0280    -1.1670 hn         1 419       0.332500
     48 H8           0.2500    -0.5980    -2.3280 h1         1 419       0.085700
     49 H10          2.6110     1.7970    -3.9000 hc         1 419       0.042367
     50 H10A         2.6900     2.1970    -2.1790 hc         1 419       0.042367
     51 H10B         1.8130     3.2540    -3.2940 hc         1 419       0.042367
     52 H11         -0.9020     0.7490    -3.9620 hc         1 419       0.042367
     53 H11A         0.5480     1.0620    -4.9260 hc         1 419       0.042367
     54 H11B        -0.4110     2.4130    -4.3040 hc         1 419       0.042367
     55 H12          0.6510     2.2770    -0.8530 hc         1 419       0.042367
     56 H12A        -0.7940     1.3960    -1.3680 hc         1 419       0.042367
     57 H12B        -0.4480     2.9960    -2.0380 hc         1 419       0.042367
     58 H16          2.9500    -2.4810    -5.4050 h1         1 419       0.072700
     59 H19         -0.4470    -1.7200    -3.7580 h1         1 419       0.056700
     60 H19A        -0.4750    -0.6700    -5.1980 h1         1 419       0.056700
     61 H18          0.0860    -3.6680    -5.0520 hc         1 419       0.058700
     62 H18A        -1.0060    -2.7920    -6.1670 hc         1 419       0.058700
     63 H17          1.4920    -3.4390    -7.0470 hc         1 419       0.075700
     64 H20          0.3140    -1.9330    -8.5370 hc         1 419       0.052200
     65 H20A        -0.0360    -0.7820    -7.2160 hc         1 419       0.052200
     66 H21          1.8240     0.2770    -8.3070 hc         1 419       0.058700
     67 H21A         2.6220    -1.2850    -8.6370 hc         1 419       0.058700
     68 H22          2.5090     0.2980    -6.0850 h1         1 419       0.095700
     69 HN25         4.5840    -1.7230    -6.6690 hn         1 419       0.316500
     70 H28          6.6270    -0.5630    -7.9930 hc         1 419       0.072700
     71 H30          8.0270     0.8060    -9.2180 ha         1 419       0.134250
     72 H31          9.0580     3.0060    -9.6430 ha         1 419       0.129000
     73 H32          8.6740     4.8710    -8.0770 ha         1 419       0.127000
     74 H33          7.2550     4.5390    -6.0890 ha         1 419       0.129000
     75 H34          6.2220     2.3400    -5.6640 ha         1 419       0.134250
     76 H36          8.0090    -2.0920    -6.9430 ha         1 419       0.134250
     77 H37          8.9740    -3.0690    -4.8960 ha         1 419       0.129000
     78 H38          8.5290    -2.0280    -2.7050 ha         1 419       0.127000
     79 H39          7.1240    -0.0070    -2.5630 ha         1 419       0.129000
     80 H40          6.1620     0.9720    -4.6110 ha         1 419       0.134250
@<TRIPOS>BOND
     1     1     2 2
     2     2     3 1
     3     2     7 1
     4     3     4 1
     5     3     6 1
     6     4     5 1
     7     7     8 1
     8     8     9 1
     9     8    13 1
    10     9    10 1
    11     9    11 1
    12     9    12 1
    13    13    14 2
    14    13    15 1
    15    15    16 1
    16    15    17 1
    17    16    19 1
    18    16    22 1
    19    17    18 1
    20    18    19 1
    21    19    20 1
    22    20    21 1
    23    21    22 1
    24    22    23 1
    25    23    24 1
    26    24    25 2
    27    24    26 1
    28    26    27 1
    29    26    33 1
    30    27    28 ar
    31    27    32 ar
    32    28    29 ar
    33    29    30 ar
    34    30    31 ar
    35    31    32 ar
    36    33    34 ar
    37    33    38 ar
    38    34    35 ar
    39    35    36 ar
    40    36    37 ar
    41    37    38 ar
    42     3    39 1
    43     4    40 1
    44     5    41 1
    45     5    42 1
    46     5    43 1
    47     6    44 1
    48     6    45 1
    49     6    46 1
    50     7    47 1
    51     8    48 1
    52    10    49 1
    53    10    50 1
    54    10    51 1
    55    11    52 1
    56    11    53 1
    57    11    54 1
    58    12    55 1
    59    12    56 1
    60    12    57 1
    61    16    58 1
    62    17    59 1
    63    17    60 1
    64    18    61 1
    65    18    62 1
    66    19    63 1
    67    20    64 1
    68    20    65 1
    69    21    66 1
    70    21    67 1
    71    22    68 1
    72    23    69 1
    73    26    70 1
    74    28    71 1
    75    29    72 1
    76    30    73 1
    77    31    74 1
    78    32    75 1
    79    34    76 1
    80    35    77 1
    81    36    78 1
    82    37    79 1
    83    38    80 1
@<TRIPOS>SUBSTRUCTURE
     1 419         1 TEMP              0 ****  ****    0 ROOT
