@<TRIPOS>MOLECULE
molecule
   36    38     1     0     0
SMALL
bcc


@<TRIPOS>ATOM
      1 C01          0.0000     0.0000     0.0000 c3         1 41A      -0.086100
      2 C02          1.5300     0.0000     0.0000 c3         1 41A      -0.070000
      3 C03          2.0360     1.2550    -0.7130 c3         1 41A      -0.086100
      4 C04          2.0370     0.0000     1.4460 c3         1 41A      -0.094700
      5 C05          3.5560    -0.0740     1.4120 cc         1 41A       0.459600
      6 C06          4.2150    -0.6710     0.3480 cd         1 41A      -0.295000
      7 C07          3.5480    -1.2470    -0.7510 c          1 41A       0.619700
      8 C08          2.0360    -1.2400    -0.7380 c3         1 41A      -0.159400
      9 O09          4.1680    -1.7360    -1.6750 o          1 41A      -0.541100
     10 S10          5.9410    -0.5670     0.6400 ss         1 41A      -0.132300
     11 C11          5.6540     0.2390     2.1210 cd         1 41A       0.645300
     12 N12          6.6380     0.6700     2.9810 nh         1 41A      -0.661300
     13 C13          7.9730     0.3460     2.4600 c3         1 41A       0.121800
     14 C14          9.0360     0.8950     3.4160 c3         1 41A       0.138400
     15 O15          8.8190     0.3540     4.7220 os         1 41A      -0.421600
     16 C16          7.5280     0.6520     5.2610 c3         1 41A       0.138400
     17 C17          6.4500     0.1010     4.3230 c3         1 41A       0.121800
     18 N18          4.3750     0.3880     2.3210 nc         1 41A      -0.730000
     19 H01         -0.3610     0.0590    -1.0200 hc         1 41A       0.040867
     20 H01A        -0.3610     0.8540     0.5610 hc         1 41A       0.040867
     21 H01B        -0.3610    -0.9120     0.4590 hc         1 41A       0.040867
     22 H03          1.7190     1.2340    -1.7480 hc         1 41A       0.040867
     23 H03A         3.1180     1.2850    -0.6670 hc         1 41A       0.040867
     24 H03B         1.6300     2.1340    -0.2280 hc         1 41A       0.040867
     25 H04          1.6620    -0.8880     1.9400 hc         1 41A       0.072200
     26 H04A         1.7500     0.9360     1.9090 hc         1 41A       0.072200
     27 H08          1.6690    -1.2260    -1.7570 hc         1 41A       0.073200
     28 H08A         1.6780    -2.1290    -0.2320 hc         1 41A       0.073200
     29 H13          8.0790    -0.7290     2.3820 h1         1 41A       0.062950
     30 H13A         8.0990     0.7990     1.4840 h1         1 41A       0.062950
     31 H14          8.9620     1.9750     3.4560 h1         1 41A       0.061450
     32 H14A        10.0200     0.6070     3.0660 h1         1 41A       0.061450
     33 H16          7.4140     1.7260     5.3500 h1         1 41A       0.061450
     34 H16A         7.4290     0.1900     6.2360 h1         1 41A       0.061450
     35 H17          5.4720     0.3750     4.6980 h1         1 41A       0.062950
     36 H17A         6.5350    -0.9780     4.2720 h1         1 41A       0.062950
@<TRIPOS>BOND
     1     1     2 1
     2     2     3 1
     3     2     4 1
     4     2     8 1
     5     4     5 1
     6     5     6 2
     7     5    18 1
     8     6     7 1
     9     6    10 1
    10     7     8 1
    11     7     9 2
    12    10    11 1
    13    11    12 1
    14    11    18 2
    15    12    13 1
    16    12    17 1
    17    13    14 1
    18    14    15 1
    19    15    16 1
    20    16    17 1
    21     1    19 1
    22     1    20 1
    23     1    21 1
    24     3    22 1
    25     3    23 1
    26     3    24 1
    27     4    25 1
    28     4    26 1
    29     8    27 1
    30     8    28 1
    31    13    29 1
    32    13    30 1
    33    14    31 1
    34    14    32 1
    35    16    33 1
    36    16    34 1
    37    17    35 1
    38    17    36 1
@<TRIPOS>SUBSTRUCTURE
     1 41A         1 TEMP              0 ****  ****    0 ROOT
