@<TRIPOS>MOLECULE
41B
   53    56     1     0     0
SMALL
bcc


@<TRIPOS>ATOM
      1 C4           0.0000     0.0000     0.0000 ca         1 41B       0.111900
      2 C5           1.3840     0.0000     0.0000 ca         1 41B      -0.100000
      3 C6           2.0740     0.0000     1.1980 ca         1 41B      -0.069300
      4 C7           3.5810    -0.0010     1.1980 c3         1 41B       0.050000
      5 C13          5.2380    -0.9360     4.3610 cc         1 41B      -0.181000
      6 C15          4.2800    -2.9260     3.3990 cd         1 41B      -0.227200
      7 C20          5.7430    -5.2120     6.7090 ca         1 41B       0.493200
      8 C22          6.6240    -3.2650     7.5700 ca         1 41B       0.724900
      9 C26          9.0370    -2.6840    10.3320 c3         1 41B      -0.082900
     10 C1           1.3830     0.0010     2.3950 ca         1 41B      -0.079000
     11 C2           0.0010     0.0020     2.3960 ca         1 41B      -0.072000
     12 C3          -0.6930     0.0070     1.2000 ca         1 41B      -0.069600
     13 C9           4.0920     1.4330     1.3470 c3         1 41B       0.205400
     14 O10          3.5080     2.0290     2.5080 oh         1 41B      -0.590800
     15 N11          4.0680    -0.8120     2.3170 n          1 41B       0.127000
     16 C12          4.7750    -0.2170     3.3140 cd         1 41B      -0.160400
     17 C14          4.9940    -2.3250     4.4220 cc         1 41B      -0.076800
     18 C16          3.8190    -2.1340     2.3340 c          1 41B       0.583700
     19 O17          3.1900    -2.6470     1.4220 o          1 41B      -0.703500
     20 C18          5.4970    -3.1300     5.5640 ca         1 41B       0.514100
     21 C19          5.2550    -4.5030     5.6240 ca         1 41B      -0.407600
     22 N21          6.4150    -4.5710     7.6510 nb         1 41B      -0.700000
     23 N23          6.1750    -2.5500     6.5510 nb         1 41B      -0.685000
     24 C25          7.8330    -3.4040     9.7180 c3         1 41B       0.138500
     25 C27          9.5100    -3.4570    11.5660 c3         1 41B       0.220900
     26 O28          8.4320    -3.5690    12.4970 os         1 41B      -0.409600
     27 C29          7.2960    -4.2750    11.9940 c3         1 41B       0.220900
     28 C30          6.7350    -3.5340    10.7780 c3         1 41B      -0.082900
     29 F31         -0.6760     0.0000    -1.1710 f          1 41B      -0.122900
     30 Cl1         -2.4290     0.0080     1.2020 cl         1 41B       0.002600
     31 H1           1.9260    -0.0060    -0.9380 ha         1 41B       0.122000
     32 H2           3.9420    -0.4180     0.2660 h1         1 41B       0.064700
     33 H3           5.7970    -0.4480     5.1500 ha         1 41B       0.140000
     34 H4           4.0800    -3.9900     3.4190 ha         1 41B       0.143000
     35 H5           5.5760    -6.2800     6.7870 h4         1 41B      -0.017900
     36 H7           8.7480    -1.6810    10.6240 hc         1 41B       0.029450
     37 H8           1.9250    -0.0010     3.3330 ha         1 41B       0.119000
     38 H9          -0.5400     0.0050     3.3350 ha         1 41B       0.118000
     39 H10          3.8180     2.0070     0.4700 h1         1 41B       0.004700
     40 H11          5.1710     1.4240     1.4490 h1         1 41B       0.004700
     41 H12          3.6160     2.9650     2.4690 ho         1 41B       0.401000
     42 H13          4.9650     0.8480     3.2720 h4         1 41B       0.158000
     43 H14          4.7020    -5.0040     4.8380 ha         1 41B       0.137000
     44 H16          8.1330    -4.3910     9.3870 h1         1 41B       0.056700
     45 H17         10.3320    -2.9260    12.0300 h1         1 41B       0.009450
     46 H18          9.8330    -4.4470    11.2680 h1         1 41B       0.009450
     47 H19          6.5370    -4.3300    12.7650 h1         1 41B       0.009450
     48 H20          7.5940    -5.2740    11.7020 h1         1 41B       0.009450
     49 H21          5.9020    -4.0930    10.3680 hc         1 41B       0.029450
     50 H22          6.4030    -2.5470    11.0770 hc         1 41B       0.029450
     51 N24          7.3270    -2.6310     8.5800 nu         1 41B      -0.480900
     52 H6           9.8390    -2.6380     9.6060 hc         1 41B       0.029450
     53 H15          7.5050    -1.6480     8.5250 hn         1 41B       0.301800
@<TRIPOS>BOND
     1     1     2 ar  
     2     1    12 ar  
     3     1    29 1   
     4     2     3 ar  
     5     2    31 1   
     6     3     4 1   
     7     3    10 ar  
     8     4    13 1   
     9     4    15 1   
    10     4    32 1   
    11     5    16 2   
    12     5    17 1   
    13     5    33 1   
    14     6    17 2   
    15     6    18 1   
    16     6    34 1   
    17     7    21 ar  
    18     7    22 ar  
    19     7    35 1   
    20     8    22 ar  
    21     8    23 ar  
    22     8    51 1   
    23     9    24 1   
    24     9    25 1   
    25     9    36 1   
    26     9    52 1   
    27    10    11 ar  
    28    10    37 1   
    29    11    12 ar  
    30    11    38 1   
    31    12    30 1   
    32    13    14 1   
    33    13    39 1   
    34    13    40 1   
    35    14    41 1   
    36    15    16 1   
    37    15    18 1   
    38    16    42 1   
    39    17    20 1   
    40    18    19 2   
    41    20    21 ar  
    42    20    23 ar  
    43    21    43 1   
    44    24    28 1   
    45    24    44 1   
    46    24    51 1   
    47    25    26 1   
    48    25    45 1   
    49    25    46 1   
    50    26    27 1   
    51    27    28 1   
    52    27    47 1   
    53    27    48 1   
    54    28    49 1   
    55    28    50 1   
    56    51    53 1   
@<TRIPOS>SUBSTRUCTURE
     1 41B         1 TEMP              0 ****  ****    0 ROOT
