@<TRIPOS>MOLECULE
molecule
   53    56     1     0     0
SMALL
bcc


@<TRIPOS>ATOM
      1 C4           0.0000     0.0000     0.0000 ca         1 41B       0.139900
      2 C5           1.3840     0.0000     0.0000 ca         1 41B      -0.142000
      3 C6           2.0740     0.0000     1.1980 ca         1 41B      -0.064300
      4 C7           3.5810    -0.0010     1.1980 c3         1 41B       0.158000
      5 C13          5.2380    -0.9360     4.3610 cc         1 41B      -0.220000
      6 C15          4.2800    -2.9260     3.3990 cd         1 41B      -0.244200
      7 C20          5.7430    -5.2120     6.7090 ca         1 41B       0.500200
      8 C22          6.6240    -3.2650     7.5700 ca         1 41B       0.945900
      9 C26          9.0370    -2.6840    10.3320 c3         1 41B      -0.134400
     10 C1           1.3830     0.0010     2.3950 ca         1 41B      -0.097000
     11 C2           0.0010     0.0020     2.3960 ca         1 41B      -0.099000
     12 C3          -0.6930     0.0070     1.2000 ca         1 41B      -0.007600
     13 C9           4.0920     1.4330     1.3470 c3         1 41B       0.121400
     14 O10          3.5080     2.0290     2.5080 oh         1 41B      -0.608800
     15 N11          4.0680    -0.8120     2.3170 n          1 41B      -0.315000
     16 C12          4.7750    -0.2170     3.3140 cd         1 41B      -0.001400
     17 C14          4.9940    -2.3250     4.4220 cc         1 41B      -0.064800
     18 C16          3.8190    -2.1340     2.3340 c          1 41B       0.681700
     19 O17          3.1900    -2.6470     1.4220 o          1 41B      -0.650500
     20 C18          5.4970    -3.1300     5.5640 ca         1 41B       0.552100
     21 C19          5.2550    -4.5030     5.6240 ca         1 41B      -0.426600
     22 N21          6.4150    -4.5710     7.6510 nb         1 41B      -0.799000
     23 N23          6.1750    -2.5500     6.5510 nb         1 41B      -0.795000
     24 C25          7.8330    -3.4040     9.7180 c3         1 41B       0.251500
     25 C27          9.5100    -3.4570    11.5660 c3         1 41B       0.140900
     26 O28          8.4320    -3.5690    12.4970 os         1 41B      -0.422600
     27 C29          7.2960    -4.2750    11.9940 c3         1 41B       0.140900
     28 C30          6.7350    -3.5340    10.7780 c3         1 41B      -0.134400
     29 F31         -0.6760     0.0000    -1.1710 f          1 41B      -0.128900
     30 Cl1         -2.4290     0.0080     1.2020 cl         1 41B      -0.088400
     31 H1           1.9260    -0.0060    -0.9380 ha         1 41B       0.149000
     32 H2           3.9420    -0.4180     0.2660 h1         1 41B       0.093700
     33 H3           5.7970    -0.4480     5.1500 ha         1 41B       0.169000
     34 H4           4.0800    -3.9900     3.4190 ha         1 41B       0.168000
     35 H5           5.5760    -6.2800     6.7870 h4         1 41B       0.030100
     36 H7           8.7480    -1.6810    10.6240 hc         1 41B       0.058200
     37 H8           1.9250    -0.0010     3.3330 ha         1 41B       0.152000
     38 H9          -0.5400     0.0050     3.3350 ha         1 41B       0.151000
     39 H10          3.8180     2.0070     0.4700 h1         1 41B       0.041700
     40 H11          5.1710     1.4240     1.4490 h1         1 41B       0.041700
     41 H12          3.6160     2.9650     2.4690 ho         1 41B       0.412000
     42 H13          4.9650     0.8480     3.2720 h4         1 41B       0.177000
     43 H14          4.7020    -5.0040     4.8380 ha         1 41B       0.152000
     44 H16          8.1330    -4.3910     9.3870 h1         1 41B       0.079700
     45 H17         10.3320    -2.9260    12.0300 h1         1 41B       0.049700
     46 H18          9.8330    -4.4470    11.2680 h1         1 41B       0.049700
     47 H19          6.5370    -4.3300    12.7650 h1         1 41B       0.049700
     48 H20          7.5940    -5.2740    11.7020 h1         1 41B       0.049700
     49 H21          5.9020    -4.0930    10.3680 hc         1 41B       0.058200
     50 H22          6.4030    -2.5470    11.0770 hc         1 41B       0.058200
     51 N24          7.3270    -2.6310     8.5800 nu         1 41B      -0.894900
     52 H6           9.8390    -2.6380     9.6060 hc         1 41B       0.058200
     53 H15          7.5050    -1.6480     8.5250 hn         1 41B       0.456800
@<TRIPOS>BOND
     1     9    25 1
     2     9    24 1
     3    26    25 1
     4    26    27 1
     5    51    24 1
     6    51     8 1
     7    28    24 1
     8    28    27 1
     9    22     8 ar
    10    22     7 ar
    11     8    23 ar
    12     7    21 ar
    13    23    20 ar
    14    21    20 ar
    15    20    17 1
    16    17     5 1
    17    17     6 2
    18     5    16 2
    19     6    18 1
    20    16    15 1
    21    18    15 1
    22    18    19 2
    23    15     4 1
    24    13     4 1
    25    13    14 1
    26     4     3 1
    27    10     3 ar
    28    10    11 ar
    29     3     2 ar
    30    11    12 ar
    31     2     1 ar
    32    12     1 ar
    33    12    30 1
    34     1    29 1
    35     2    31 1
    36     4    32 1
    37     5    33 1
    38     6    34 1
    39     7    35 1
    40     9    52 1
    41     9    36 1
    42    10    37 1
    43    11    38 1
    44    13    39 1
    45    13    40 1
    46    14    41 1
    47    16    42 1
    48    21    43 1
    49    51    53 1
    50    24    44 1
    51    25    45 1
    52    25    46 1
    53    27    47 1
    54    27    48 1
    55    28    49 1
    56    28    50 1
@<TRIPOS>SUBSTRUCTURE
     1 41B         1 TEMP              0 ****  ****    0 ROOT
