@<TRIPOS>MOLECULE
41D
   31    31     1     0     0
SMALL
bcc


@<TRIPOS>ATOM
      1 C10        -0.8410    0.6640   -0.2470 c3        1 41D      0.427300
      2 C01         2.8100    0.8380    0.4500 ce        1 41D     -0.206000
      3 C02         3.1050    0.4180    1.7940 ce        1 41D     -0.121100
      4 C03         2.3120   -0.2430    2.6020 c1        1 41D      0.032200
      5 C04         1.5750   -0.8980    3.4130 cu        1 41D     -0.276500
      6 N05         0.4290    0.2650    0.3050 nh        1 41D     -0.735000
      7 C06         1.6120    0.8090   -0.1830 c2        1 41D      0.049000
      8 C08         1.1110   -2.1960    3.9550 cx        1 41D      0.169300
      9 O09         1.9360   -2.9910    4.7410 oh        1 41D     -0.557800
     10 C11        -0.9370    0.6450   -1.7960 c3        1 41D     -0.085400
     11 C12        -0.9420    2.0710   -2.3050 c3        1 41D     -0.361600
     12 S13        -1.3190    3.1350   -1.0220 s6        1 41D      1.571500
     13 O14        -1.2270    1.9720    0.1800 os        1 41D     -0.560500
     14 O15        -0.2980    4.0330   -0.8060 o         1 41D     -0.640800
     15 O16        -2.6320    3.5450   -1.0710 o         1 41D     -0.640800
     16 H1         -1.6490    1.2100    2.4120 ha        1 41D      0.001000
     17 H2         -1.6180   -0.0320    0.1990 h2        1 41D      0.098700
     18 H3          1.5490    1.1950   -1.2210 h4        1 41D      0.129000
     19 H4          3.6720    1.2370   -0.1110 ha        1 41D      0.138000
     20 H6          4.1120    0.6960    2.1630 ha        1 41D      0.144000
     21 H7          0.3920    0.1740    1.3060 hn        1 41D      0.427800
     22 H8         -1.5740    0.5710    2.6250 ha        1 41D      0.001000
     23 H9         -0.4780   -0.5960    4.2260 hc        1 41D      0.083700
     24 H10         0.8550   -0.5330    5.4850 hc        1 41D      0.083700
     25 H11         0.4860   -2.8750    3.3380 h1        1 41D      0.117700
     26 H12         2.5120   -2.4120    5.2580 ho        1 41D      0.409000
     27 H13        -0.1030    0.0520   -2.2480 hc        1 41D      0.081200
     28 H14        -1.8940    0.1320   -2.0740 hc        1 41D      0.081200
     29 H15        -1.6740    2.1570   -3.1510 h1        1 41D      0.129200
     30 H16         0.0580    2.3120   -2.7550 h1        1 41D      0.129200
     31 C07         0.5600   -0.8830    4.4780 cx        1 41D     -0.119200
@<TRIPOS>BOND
     1    1    6 1   
     2    1   10 1   
     3    1   13 1   
     4    1   17 1   
     5    2    3 1   
     6    2    7 2   
     7    2   19 1   
     8    3    4 2   
     9    3   20 1   
    10    4    5 2   
    11    5    8 1   
    12    5   31 1   
    13    6    7 1   
    14    6   21 1   
    15    7   18 1   
    16    8    9 1   
    17    8   25 1   
    18    8   31 1   
    19    9   26 1   
    20   10   11 1   
    21   10   27 1   
    22   10   28 1   
    23   11   12 1   
    24   11   29 1   
    25   11   30 1   
    26   12   13 1   
    27   12   14 2   
    28   12   15 2   
    29   16   22 1   
    30   23   31 1   
    31   24   31 1   
@<TRIPOS>SUBSTRUCTURE
     1 41D         1 TEMP              0 ****  ****    0 ROOT
