@<TRIPOS>MOLECULE
molecule
   31    31     1     0     0
SMALL
bcc


@<TRIPOS>ATOM
      1 C10          0.0000     0.0000     0.0000 c3         1 41D      -0.030700
      2 C01          3.6860     0.0000     0.0000 ca         1 41D      -0.147000
      3 C02          3.9740     0.0000     1.3560 ca         1 41D      -0.031000
      4 C03          2.9170    -0.0020     2.2540 ca         1 41D      -0.141000
      5 C04          1.6220    -0.0040     1.7710 ca         1 41D       0.013400
      6 N05          1.3870    -0.0040     0.4740 na         1 41D       0.086900
      7 C06          2.3660     0.0030    -0.4100 ca         1 41D      -0.036300
      8 C08          0.1520    -1.4450     3.1530 c3         1 41D       0.148400
      9 O09         -0.8770    -1.4400     4.1450 oh         1 41D      -0.587800
     10 C11         -0.5140     1.4400    -0.0610 c3         1 41D      -0.064400
     11 C12         -1.9980     1.4360    -0.4320 c3         1 41D      -0.256600
     12 S13         -2.6090     3.1430    -0.5040 s6         1 41D       1.241800
     13 O14         -2.4280     3.7610     0.8000 o          1 41D      -0.684867
     14 O15         -1.8500     3.8690    -1.5120 o          1 41D      -0.684867
     15 O16         -4.0190     3.1220    -0.8580 o          1 41D      -0.684867
     16 H1          -0.6160    -0.5750     0.6810 h1         1 41D       0.093700
     17 H2          -0.0450    -0.4420    -0.9880 h1         1 41D       0.093700
     18 H3           4.4870     0.0040    -0.7300 ha         1 41D       0.185000
     19 H4           4.9990    -0.0010     1.7060 ha         1 41D       0.176000
     20 H6           3.1040    -0.0020     3.3210 ha         1 41D       0.186000
     21 H7           2.1330     0.0030    -1.4680 h4         1 41D       0.207000
     22 H8          -0.4030     0.4310     2.2620 hc         1 41D       0.111200
     23 H9           0.7280     0.5740     3.6150 hc         1 41D       0.111200
     24 H10          1.0350    -1.9310     3.5510 h1         1 41D       0.023700
     25 H11         -0.1920    -1.9830     2.2780 h1         1 41D       0.023700
     26 H12         -1.0550    -2.3250     4.4170 ho         1 41D       0.420000
     27 H13          0.0430     1.9910    -0.8090 hc         1 41D       0.072700
     28 H14         -0.3840     1.9110     0.9060 hc         1 41D       0.072700
     29 H15         -2.5560     0.8850     0.3160 h1         1 41D       0.075200
     30 H16         -2.1280     0.9640    -1.3980 h1         1 41D       0.075200
     31 C07          0.4670    -0.0060     2.7380 c3         1 41D      -0.070100
@<TRIPOS>BOND
     1    15    12 1
     2    13    12 1
     3    12    14 1
     4    12    11 1
     5    11    10 1
     6    10     1 1
     7     1     6 1
     8     6     7 1
     9     6     5 2
    10     7     2 ar
    11    31     5 1
    12    31     8 1
    13     5     4 ar
    14     2     3 ar
    15     9     8 1
    16     4     3 ar
    17     1    16 1
    18     1    17 1
    19     2    18 1
    20     3    19 1
    21     4    20 1
    22     7    21 1
    23    31    22 1
    24    31    23 1
    25     8    24 1
    26     8    25 1
    27     9    26 1
    28    10    27 1
    29    10    28 1
    30    11    29 1
    31    11    30 1
@<TRIPOS>SUBSTRUCTURE
     1 41D         1 TEMP              0 ****  ****    0 ROOT
