@<TRIPOS>MOLECULE
molecule
   55    57     1     0     0
SMALL
bcc


@<TRIPOS>ATOM
      1 CAB          0.0000     0.0000     0.0000 c3         1 41E      -0.192100
      2 CAU          1.5070     0.0000     0.0000 c          1 41E       0.600700
      3 OAC          2.1140     0.0000     1.0510 o          1 41E      -0.516100
      4 CAZ          2.2380    -0.0020    -1.2670 cc         1 41E      -0.134700
      5 SAT          1.5000    -0.0030    -2.8630 ss         1 41E      -0.094800
      6 CAI          3.6040     0.0030    -1.3900 cd         1 41E      -0.089000
      7 CAJ          4.0600     0.0010    -2.6780 cd         1 41E      -0.111000
      8 CBA          3.0810    -0.0040    -3.6340 cc         1 41E      -0.080700
      9 CAW          3.3160    -0.0070    -5.0880 c          1 41E       0.701700
     10 OAE          4.1540     0.7300    -5.5700 o          1 41E      -0.588100
     11 NBC          2.6000    -0.8260    -5.8840 n          1 41E      -0.484800
     12 CAQ          1.5270    -1.6610    -5.3270 c3         1 41E       0.098000
     13 CAO          1.7770    -3.1180    -5.7320 c3         1 41E      -0.093900
     14 CAP          2.8740    -0.8950    -7.3250 c3         1 41E       0.098000
     15 CAN          3.1120    -2.3580    -7.7120 c3         1 41E      -0.093900
     16 CBB          1.9160    -3.2040    -7.2540 c3         1 41E      -0.075700
     17 CAM          2.1320    -4.6600    -7.6680 c3         1 41E      -0.062400
     18 CAL          0.8860    -5.4780    -7.3230 c3         1 41E      -0.160400
     19 CAV          1.0990    -6.9130    -7.7320 c          1 41E       0.655100
     20 OAD          2.1440    -7.2480    -8.2490 o          1 41E      -0.583100
     21 NAR          0.1280    -7.8250    -7.5230 ns         1 41E      -0.480100
     22 CAX          0.3690    -9.1770    -7.7890 ca         1 41E       0.091600
     23 CAK          1.6350    -9.7100    -7.5920 ca         1 41E      -0.162000
     24 CAG         -0.6600    -9.9900    -8.2470 ca         1 41E      -0.202000
     25 CAF         -0.4240   -11.3270    -8.5030 ca         1 41E      -0.073000
     26 CAH          0.8370   -11.8580    -8.3080 ca         1 41E      -0.238000
     27 CAY          1.8700   -11.0490    -7.8560 ca         1 41E       0.160100
     28 OAS          3.1090   -11.5730    -7.6650 os         1 41E      -0.323900
     29 CAA          3.2770   -12.9640    -7.9460 c3         1 41E       0.129700
     30 H1          -0.3610    -0.8900    -0.5010 hc         1 41E       0.065033
     31 H2          -0.3610     0.8790    -0.5200 hc         1 41E       0.065033
     32 H3          -0.3610     0.0110     1.0210 hc         1 41E       0.065033
     33 H4           4.2680     0.0060    -0.5350 ha         1 41E       0.172000
     34 H5           5.1150     0.0030    -2.9240 ha         1 41E       0.170000
     35 H6           0.5720    -1.3340    -5.7210 h1         1 41E       0.059950
     36 H7           1.5280    -1.5800    -4.2470 h1         1 41E       0.059950
     37 H8           2.6890    -3.4700    -5.2660 hc         1 41E       0.054700
     38 H9           0.9420    -3.7290    -5.4110 hc         1 41E       0.054700
     39 H10          3.7570    -0.3120    -7.5540 h1         1 41E       0.059950
     40 H11          2.0240    -0.5090    -7.8740 h1         1 41E       0.059950
     41 H12          4.0130    -2.7170    -7.2300 hc         1 41E       0.054700
     42 H13          3.2160    -2.4340    -8.7880 hc         1 41E       0.054700
     43 H14          1.0120    -2.8240    -7.7160 hc         1 41E       0.048700
     44 H15          2.3120    -4.7080    -8.7350 hc         1 41E       0.063700
     45 H16          2.9870    -5.0630    -7.1390 hc         1 41E       0.063700
     46 H17          0.0310    -5.0750    -7.8530 hc         1 41E       0.061700
     47 H18          0.7060    -5.4300    -6.2560 hc         1 41E       0.061700
     48 H19         -0.7610    -7.5360    -7.1660 hn         1 41E       0.324500
     49 H20          2.4410    -9.0770    -7.2400 ha         1 41E       0.172000
     50 H21         -1.6500    -9.5760    -8.4010 ha         1 41E       0.128000
     51 H22         -1.2280   -11.9600    -8.8580 ha         1 41E       0.131000
     52 H23          1.0200   -12.9060    -8.5110 ha         1 41E       0.135000
     53 H24          4.3030   -13.2510    -7.7510 h1         1 41E       0.041367
     54 H25          3.0410   -13.1530    -8.9860 h1         1 41E       0.041367
     55 H26          2.6140   -13.5430    -7.3140 h1         1 41E       0.041367
@<TRIPOS>BOND
     1    25    26 ar  
     2    25    24 ar  
     3    26    27 ar  
     4    24    22 ar  
     5    27    28 1   
     6    27    23 ar  
     7    28    29 1   
     8    22    23 ar  
     9    22    21 1   
    10    20    19 2   
    11    21    19 1   
    12    19    18 1   
    13    18    17 1   
    14    15    14 1   
    15    15    16 1   
    16    17    16 1   
    17    14    11 1   
    18    16    13 1   
    19    10     9 2   
    20    11     9 1   
    21    11    12 1   
    22    13    12 1   
    23     9     8 1   
    24     8     7 2   
    25     8     5 1   
    26     7     6 1   
    27     5     4 1   
    28     6     4 2   
    29     4     2 1   
    30     2     3 2   
    31     2     1 1   
    32     1    30 1   
    33     1    31 1   
    34     1    32 1   
    35     6    33 1   
    36     7    34 1   
    37    12    35 1   
    38    12    36 1   
    39    13    37 1   
    40    13    38 1   
    41    14    39 1   
    42    14    40 1   
    43    15    41 1   
    44    15    42 1   
    45    16    43 1   
    46    17    44 1   
    47    17    45 1   
    48    18    46 1   
    49    18    47 1   
    50    21    48 1   
    51    23    49 1   
    52    24    50 1   
    53    25    51 1   
    54    26    52 1   
    55    29    53 1   
    56    29    54 1   
    57    29    55 1   
@<TRIPOS>SUBSTRUCTURE
     1 41E         1 TEMP              0 ****  ****    0 ROOT
