@<TRIPOS>MOLECULE
41E
   55    57     1     0     0
SMALL
bcc


@<TRIPOS>ATOM
      1 CAB          0.0000     0.0000     0.0000 c3         1 41E      -0.089100
      2 CAU          1.5070     0.0000     0.0000 c          1 41E       0.653700
      3 OAC          2.1140     0.0000     1.0510 o          1 41E      -0.549100
      4 CAZ          2.2380    -0.0020    -1.2670 cc         1 41E      -0.093700
      5 SAT          1.5000    -0.0030    -2.8630 ss         1 41E      -0.217800
      6 CAI          3.6040     0.0030    -1.3900 cd         1 41E      -0.051000
      7 CAJ          4.0600     0.0010    -2.6780 cd         1 41E      -0.076000
      8 CBA          3.0810    -0.0040    -3.6340 cc         1 41E      -0.038700
      9 CAW          3.3160    -0.0070    -5.0880 c          1 41E       0.637700
     10 OAE          4.1540     0.7300    -5.5700 o          1 41E      -0.632100
     11 NBC          2.6000    -0.8260    -5.8840 n          1 41E      -0.136800
     12 CAQ          1.5270    -1.6610    -5.3270 c3         1 41E       0.025500
     13 CAO          1.7770    -3.1180    -5.7320 c3         1 41E      -0.040900
     14 CAP          2.8740    -0.8950    -7.3250 c3         1 41E       0.025500
     15 CAN          3.1120    -2.3580    -7.7120 c3         1 41E      -0.040900
     16 CBB          1.9160    -3.2040    -7.2540 c3         1 41E      -0.057700
     17 CAM          2.1320    -4.6600    -7.6680 c3         1 41E      -0.010400
     18 CAL          0.8860    -5.4780    -7.3230 c3         1 41E      -0.107400
     19 CAV          1.0990    -6.9130    -7.7320 c          1 41E       0.557100
     20 OAD          2.1440    -7.2480    -8.2490 o          1 41E      -0.624100
     21 NAR          0.1280    -7.8250    -7.5230 ns         1 41E      -0.039100
     22 CAX          0.3690    -9.1770    -7.7890 ca         1 41E      -0.050400
     23 CAK          1.6350    -9.7100    -7.5920 ca         1 41E      -0.147000
     24 CAG         -0.6600    -9.9900    -8.2470 ca         1 41E      -0.179000
     25 CAF         -0.4240   -11.3270    -8.5030 ca         1 41E      -0.037000
     26 CAH          0.8370   -11.8580    -8.3080 ca         1 41E      -0.226000
     27 CAY          1.8700   -11.0490    -7.8560 ca         1 41E       0.172100
     28 OAS          3.1090   -11.5730    -7.6650 os         1 41E      -0.303900
     29 CAA          3.2770   -12.9640    -7.9460 c3         1 41E       0.243700
     30 H1          -0.3610    -0.8900    -0.5010 hc         1 41E       0.029367
     31 H2          -0.3610     0.8790    -0.5200 hc         1 41E       0.029367
     32 H3          -0.3610     0.0110     1.0210 hc         1 41E       0.029367
     33 H4           4.2680     0.0060    -0.5350 ha         1 41E       0.139000
     34 H5           5.1150     0.0030    -2.9240 ha         1 41E       0.138000
     35 H6           0.5720    -1.3340    -5.7210 h1         1 41E       0.040200
     36 H7           1.5280    -1.5800    -4.2470 h1         1 41E       0.040200
     37 H8           2.6890    -3.4700    -5.2660 hc         1 41E       0.026950
     38 H9           0.9420    -3.7290    -5.4110 hc         1 41E       0.026950
     39 H10          3.7570    -0.3120    -7.5540 h1         1 41E       0.040200
     40 H11          2.0240    -0.5090    -7.8740 h1         1 41E       0.040200
     41 H12          4.0130    -2.7170    -7.2300 hc         1 41E       0.026950
     42 H13          3.2160    -2.4340    -8.7880 hc         1 41E       0.026950
     43 H14          1.0120    -2.8240    -7.7160 hc         1 41E       0.028700
     44 H15          2.3120    -4.7080    -8.7350 hc         1 41E       0.035200
     45 H16          2.9870    -5.0630    -7.1390 hc         1 41E       0.035200
     46 H17          0.0310    -5.0750    -7.8530 hc         1 41E       0.031200
     47 H18          0.7060    -5.4300    -6.2560 hc         1 41E       0.031200
     48 H19         -0.7610    -7.5360    -7.1660 hn         1 41E       0.166500
     49 H20          2.4410    -9.0770    -7.2400 ha         1 41E       0.151000
     50 H21         -1.6500    -9.5760    -8.4010 ha         1 41E       0.106000
     51 H22         -1.2280   -11.9600    -8.8580 ha         1 41E       0.100000
     52 H23          1.0200   -12.9060    -8.5110 ha         1 41E       0.121000
     53 H24          4.3030   -13.2510    -7.7510 h1         1 41E      -0.002633
     54 H25          3.0410   -13.1530    -8.9860 h1         1 41E      -0.002633
     55 H26          2.6140   -13.5430    -7.3140 h1         1 41E      -0.002633
@<TRIPOS>BOND
     1     1     2 1   
     2     1    30 1   
     3     1    31 1   
     4     1    32 1   
     5     2     3 2   
     6     2     4 1   
     7     4     5 1   
     8     4     6 2   
     9     5     8 1   
    10     6     7 1   
    11     6    33 1   
    12     7     8 2   
    13     7    34 1   
    14     8     9 1   
    15     9    10 2   
    16     9    11 1   
    17    11    12 1   
    18    11    14 1   
    19    12    13 1   
    20    12    35 1   
    21    12    36 1   
    22    13    16 1   
    23    13    37 1   
    24    13    38 1   
    25    14    15 1   
    26    14    39 1   
    27    14    40 1   
    28    15    16 1   
    29    15    41 1   
    30    15    42 1   
    31    16    17 1   
    32    16    43 1   
    33    17    18 1   
    34    17    44 1   
    35    17    45 1   
    36    18    19 1   
    37    18    46 1   
    38    18    47 1   
    39    19    20 2   
    40    19    21 1   
    41    21    22 1   
    42    21    48 1   
    43    22    23 ar  
    44    22    24 ar  
    45    23    27 ar  
    46    23    49 1   
    47    24    25 ar  
    48    24    50 1   
    49    25    26 ar  
    50    25    51 1   
    51    26    27 ar  
    52    26    52 1   
    53    27    28 1   
    54    28    29 1   
    55    29    53 1   
    56    29    54 1   
    57    29    55 1   
@<TRIPOS>SUBSTRUCTURE
     1 41E         1 TEMP              0 ****  ****    0 ROOT
