@<TRIPOS>MOLECULE
41F
   41    44     1     0     0
SMALL
bcc


@<TRIPOS>ATOM
      1 CAI          0.0000     0.0000     0.0000 ca         1 41F      -0.077000
      2 CAU          1.4080     0.0000     0.0000 ca         1 41F       0.042400
      3 NAO          2.3020     0.0000     0.9950 nc         1 41F      -0.134400
      4 NAN          3.5460     0.0010     0.7320 nd         1 41F      -0.118500
      5 SAQ          3.7800     0.0020    -0.8170 ss         1 41F       0.072600
      6 CAV          2.0680     0.0020    -1.2460 ca         1 41F      -0.084100
      7 CAH          1.3620     0.0020    -2.4350 ca         1 41F      -0.021000
      8 CAG         -0.0060     0.0010    -2.4130 ca         1 41F      -0.104000
      9 CAS         -0.6860    -0.0060    -1.1950 ca         1 41F      -0.061400
     10 NAP         -2.0870    -0.0070    -1.1860 ns         1 41F      -0.063100
     11 CAR         -2.7680     0.5450    -2.2100 c          1 41F       0.592100
     12 OAA         -2.1770     0.8940    -3.2140 o          1 41F      -0.696100
     13 NAW         -4.1030     0.7100    -2.1220 n          1 41F      -0.177800
     14 CAK         -4.8900     1.1370    -3.2890 c3         1 41F       0.056500
     15 CAM         -5.7570     2.3320    -2.8810 c3         1 41F       0.120300
     16 CAJ         -4.8120     0.4610    -0.8570 c3         1 41F       0.056500
     17 CAL         -5.6810     1.6820    -0.5390 c3         1 41F       0.120300
     18 NAX         -6.5470     1.9780    -1.6940 nh         1 41F      -0.361000
     19 CAT         -7.4690     2.9810    -1.3880 ca         1 41F       0.017600
     20 CAE         -8.3160     2.8380    -0.2970 ca         1 41F      -0.146500
     21 CAC         -9.2270     3.8330     0.0030 ca         1 41F      -0.072000
     22 CAB         -9.2950     4.9700    -0.7810 ca         1 41F      -0.124000
     23 CAD         -8.4520     5.1150    -1.8680 ca         1 41F      -0.072000
     24 CAF         -7.5360     4.1260    -2.1710 ca         1 41F      -0.146500
     25 H1          -0.5430    -0.0050     0.9370 ha         1 41F       0.117000
     26 H2           1.8900     0.0070    -3.3810 ha         1 41F       0.116000
     27 H3          -0.5620    -0.0030    -3.3420 ha         1 41F       0.177000
     28 H4          -2.5820    -0.4590    -0.4430 hn         1 41F       0.176500
     29 H5          -4.2220     1.4300    -4.0900 h1         1 41F       0.033450
     30 H6          -5.5250     0.3230    -3.6160 h1         1 41F       0.033450
     31 H7          -5.1200     3.1770    -2.6500 h1         1 41F       0.028950
     32 H8          -6.4240     2.5880    -3.6950 h1         1 41F       0.028950
     33 H9          -4.0920     0.3100    -0.0610 h1         1 41F       0.033450
     34 H10         -5.4400    -0.4160    -0.9590 h1         1 41F       0.033450
     35 H11         -6.2960     1.4710     0.3280 h1         1 41F       0.028950
     36 H12         -5.0450     2.5360    -0.3380 h1         1 41F       0.028950
     37 H13         -8.2640     1.9480     0.3170 ha         1 41F       0.117500
     38 H14         -9.8880     3.7220     0.8540 ha         1 41F       0.102000
     39 H15        -10.0110     5.7480    -0.5450 ha         1 41F       0.105000
     40 H16         -8.5070     6.0080    -2.4790 ha         1 41F       0.102000
     41 H17         -6.8770     4.2410    -3.0230 ha         1 41F       0.117500
@<TRIPOS>BOND
     1     1     2 ar  
     2     1     9 ar  
     3     1    25 1   
     4     2     3 1   
     5     2     6 ar  
     6     3     4 2   
     7     4     5 1   
     8     5     6 1   
     9     6     7 ar  
    10     7     8 ar  
    11     7    26 1   
    12     8     9 ar  
    13     8    27 1   
    14     9    10 1   
    15    10    11 1   
    16    10    28 1   
    17    11    12 2   
    18    11    13 1   
    19    13    14 1   
    20    13    16 1   
    21    14    15 1   
    22    14    29 1   
    23    14    30 1   
    24    15    18 1   
    25    15    31 1   
    26    15    32 1   
    27    16    17 1   
    28    16    33 1   
    29    16    34 1   
    30    17    18 1   
    31    17    35 1   
    32    17    36 1   
    33    18    19 1   
    34    19    20 ar  
    35    19    24 ar  
    36    20    21 ar  
    37    20    37 1   
    38    21    22 ar  
    39    21    38 1   
    40    22    23 ar  
    41    22    39 1   
    42    23    24 ar  
    43    23    40 1   
    44    24    41 1   
@<TRIPOS>SUBSTRUCTURE
     1 41F         1 TEMP              0 ****  ****    0 ROOT
