@<TRIPOS>MOLECULE
molecule
   39    41     1     0     0
SMALL
bcc


@<TRIPOS>ATOM
      1 N1           0.0000     0.0000     0.0000 ns         1 41G      -0.456400
      2 C2           1.3630     0.0000     0.0000 cc         1 41G       0.487800
      3 N2           2.0300     0.0000    -1.2000 nz         1 41G      -0.729600
      4 N3           2.0570     0.0000     1.1140 nd         1 41G      -0.568100
      5 C4           1.4450    -0.0000     2.3130 cd         1 41G       0.192100
      6 C5           0.0480    -0.0010     2.3670 cc         1 41G      -0.202900
      7 C6          -0.6820     0.0050     1.1670 c          1 41G       0.745100
      8 O6          -1.9020     0.0050     1.1770 o          1 41G      -0.536500
      9 N7          -0.2860    -0.0010     3.7080 na         1 41G       0.036900
     10 C8           0.8700    -0.0000     4.4040 cc         1 41G       0.031400
     11 N9           1.8860    -0.0010     3.5830 na         1 41G       0.053900
     12 CG           5.2060     1.6820     4.3800 ca         1 41G      -0.263600
     13 ON2          6.7130     5.6480     4.4520 o          1 41G      -0.723300
     14 CZ           7.8550     2.1660     5.0810 ca         1 41G       0.215100
     15 C1'          3.2940    -0.0010     3.9850 c3         1 41G      -0.093700
     16 C2'          3.8110     1.4150     4.0050 c          1 41G       0.573700
     17 O2'          3.0750     2.3330     3.7110 o          1 41G      -0.535100
     18 CD1          6.0590     0.6200     4.7140 ca         1 41G      -0.090000
     19 ON           8.6820     4.8320     5.0770 o          1 41G      -0.723300
     20 CD2          5.6860     2.9930     4.3980 ca         1 41G       0.013000
     21 CE1          7.3680     0.8650     5.0600 ca         1 41G      -0.220000
     22 CE2          7.0110     3.2390     4.7480 ca         1 41G      -0.137600
     23 CM7         -1.6390    -0.0010     4.2680 c3         1 41G       0.017600
     24 H1          -0.4980    -0.0040    -0.8680 hn         1 41G       0.368500
     25 H21N         3.0150     0.0600    -1.0350 hn         1 41G       0.487467
     26 H22N         1.8260    -0.8450    -1.6960 hn         1 41G       0.487467
     27 HM71        -2.1660    -0.8880     3.9390 h1         1 41G       0.102033
     28 HM72        -2.1700     0.8810     3.9300 h1         1 41G       0.102033
     29 HM73        -1.5820     0.0050     5.3500 h1         1 41G       0.102033
     30 H8           0.9450    -0.0000     5.4850 h5         1 41G       0.268000
     31 H1'1         3.8710    -0.5860     3.2790 h1         1 41G       0.118700
     32 H1'2         3.3870    -0.4330     4.9740 h1         1 41G       0.118700
     33 HD2          5.0090     3.8200     4.2250 ha         1 41G       0.186000
     34 HD1          5.6860    -0.3970     4.6990 ha         1 41G       0.097000
     35 HE1          8.0220     0.0400     5.3170 ha         1 41G       0.141000
     36 HH           9.7120     1.8580     4.9010 ho         1 41G       0.422000
     37 OH           9.1440     2.4000     5.4240 oh         1 41G      -0.446100
     38 CN           7.5260     4.6200     4.7710 c          1 41G       0.870200
     39 H23          1.7380     0.7890    -1.7440 hn         1 41G       0.487467
@<TRIPOS>BOND
     1     8     7 2
     2     7     1 1
     3     7     6 1
     4     1     2 1
     5     2     3 1
     6     2     4 2
     7     4     5 1
     8     6     5 2
     9     6     9 1
    10     5    11 1
    11     9    23 1
    12     9    10 2
    13    10    11 1
    14    11    15 1
    15    15    16 1
    16    16    17 2
    17    16    12 1
    18    12    20 ar
    19    12    18 ar
    20    20    22 ar
    21    22    38 1
    22    22    14 ar
    23    38    13 1
    24    38    19 1
    25    18    21 ar
    26    21    14 ar
    27    14    37 1
    28     1    24 1
    29     3    25 1
    30     3    26 1
    31    23    27 1
    32    23    28 1
    33    23    29 1
    34    10    30 1
    35    15    31 1
    36    15    32 1
    37    20    33 1
    38    18    34 1
    39    21    35 1
    40    37    36 1
    41    39     3 1
@<TRIPOS>SUBSTRUCTURE
     1 41G         1 TEMP              0 ****  ****    0 ROOT
