@<TRIPOS>MOLECULE
molecule
   37    39     1     0     0
SMALL
bcc


@<TRIPOS>ATOM
      1 Cl           0.0000     0.0000     0.0000 cl         1 41I      -0.072400
      2 C14          1.7360     0.0000     0.0000 ca         1 41I       0.008400
      3 C13          2.4270     0.0000     1.1990 ca         1 41I      -0.082000
      4 C12          3.8090    -0.0000     1.2010 ca         1 41I      -0.172000
      5 C15          2.4270    -0.0040    -1.1990 ca         1 41I      -0.082000
      6 C16          3.8090    -0.0040    -1.2010 ca         1 41I      -0.172000
      7 C11          4.5040     0.0010    -0.0010 ca         1 41I       0.121100
      8 O2           5.8620     0.0010    -0.0010 os         1 41I      -0.218200
      9 C8           6.4980     0.1170     1.1890 cc         1 41I       0.084500
     10 C7           7.2060    -0.9400     1.7330 cd         1 41I      -0.200200
     11 C6           7.8360    -0.7370     2.9710 c          1 41I       0.643700
     12 O            8.4700    -1.6440     3.4870 o          1 41I      -0.537500
     13 C9           6.4690     1.3730     1.9480 cc         1 41I       0.197600
     14 C10          5.7380     2.5440     1.4240 c          1 41I       0.445800
     15 N2           5.7150     3.6940     2.1260 nz         1 41I      -0.673400
     16 O1           5.1560     2.4710     0.3580 o          1 41I      -0.388100
     17 N1           7.1000     1.4450     3.0990 nd         1 41I      -0.417300
     18 N            7.7460     0.4510     3.5900 n          1 41I       0.014000
     19 C3           8.3880     0.6150     4.8220 ca         1 41I      -0.024400
     20 C2           9.2000     1.7210     5.0430 ca         1 41I      -0.094000
     21 C1           9.8320     1.8790     6.2610 ca         1 41I      -0.113500
     22 C4           8.2100    -0.3240     5.8300 ca         1 41I      -0.094000
     23 C5           8.8460    -0.1600     7.0450 ca         1 41I      -0.113500
     24 C            9.6580     0.9390     7.2600 ca         1 41I      -0.088000
     25 H13          1.8840    -0.0000     2.1360 ha         1 41I       0.160500
     26 H15          1.8840    -0.0080    -2.1360 ha         1 41I       0.160500
     27 H12          4.3500     0.0020     2.1390 ha         1 41I       0.145500
     28 H16          4.3490    -0.0060    -2.1400 ha         1 41I       0.145500
     29 H7           7.4950    -1.7770     1.1090 ha         1 41I       0.216000
     30 H21N         6.6450     4.0570     2.2040 hn         1 41I       0.481800
     31 H22N         5.3470     3.5190     3.0410 hn         1 41I       0.481800
     32 H2           9.3380     2.4580     4.2610 ha         1 41I       0.144000
     33 H4           7.5750    -1.1850     5.6620 ha         1 41I       0.144000
     34 H1          10.4670     2.7390     6.4330 ha         1 41I       0.155000
     35 H           10.1550     1.0650     8.2140 ha         1 41I       0.155000
     36 H5           8.7100    -0.8940     7.8300 ha         1 41I       0.155000
     37 H23          5.1420     4.3640     1.6520 hn         1 41I       0.481800
@<TRIPOS>BOND
     1     1     2 1   
     2     2     3 ar  
     3     2     5 ar  
     4     3     4 ar  
     5     4     7 ar  
     6     5     6 ar  
     7     6     7 ar  
     8     7     8 1   
     9     8     9 1   
    10     9    10 2   
    11     9    13 1   
    12    10    11 1   
    13    11    12 2   
    14    11    18 1   
    15    13    14 1   
    16    13    17 2   
    17    14    15 1   
    18    14    16 2   
    19    17    18 1   
    20    18    19 1   
    21    19    20 ar  
    22    19    22 ar  
    23    20    21 ar  
    24    21    24 ar  
    25    22    23 ar  
    26    23    24 ar  
    27     3    25 1   
    28     5    26 1   
    29     4    27 1   
    30     6    28 1   
    31    10    29 1   
    32    15    30 1   
    33    15    31 1   
    34    20    32 1   
    35    22    33 1   
    36    21    34 1   
    37    24    35 1   
    38    23    36 1   
    39    37    15 1   
@<TRIPOS>SUBSTRUCTURE
     1 41I         1 TEMP              0 ****  ****    0 ROOT
