@<TRIPOS>MOLECULE
41K
   19    19     1     0     0
SMALL
bcc


@<TRIPOS>ATOM
      1 OAA          0.0000     0.0000     0.0000 o          1 41K      -0.889300
      2 CAE          1.3430     0.0000     0.0000 c          1 41K       1.002600
      3 OAD          1.9470     0.0000    -1.0470 o          1 41K      -0.889300
      4 CAF          2.0960     0.0000     1.3050 c3         1 41K       0.156300
      5 CAB          1.6080     1.1390     2.2030 c3         1 41K       0.001900
      6 N            3.5520     0.1200     1.0620 n7         1 41K      -0.516200
      7 SAK          1.9040    -1.6150     2.1540 ss         1 41K      -0.505200
      8 CB           3.6960    -2.0110     2.2420 c3         1 41K       0.137700
      9 CA           4.3200    -0.5950     2.0980 c3         1 41K       0.000500
     10 C            5.7620    -0.7110     1.6780 c          1 41K       0.986600
     11 O            6.1240    -0.2480     0.6230 o          1 41K      -0.903300
     12 OXT          6.6460    -1.3300     2.4770 o          1 41K      -0.903300
     13 H2           2.3140     1.2890     3.0110 hc         1 41K      -0.002633
     14 H3           1.5270     2.0490     1.6200 hc         1 41K      -0.002633
     15 H4           0.6380     0.8850     2.6130 hc         1 41K      -0.002633
     16 H5           3.8110     1.0870     1.0610 hn         1 41K       0.253800
     17 H7           3.9920    -2.6510     1.4190 h1         1 41K       0.038200
     18 H8           3.9490    -2.4510     3.1990 h1         1 41K       0.038200
     19 H9           4.2470    -0.0650     3.0400 h1         1 41K      -0.004300
@<TRIPOS>BOND
     1     1     2 1   
     2     2     3 1   
     3     2     4 1   
     4     4     5 1   
     5     4     6 1   
     6     4     7 1   
     7     5    13 1   
     8     5    14 1   
     9     5    15 1   
    10     6     9 1   
    11     6    16 1   
    12     7     8 1   
    13     8     9 1   
    14     8    17 1   
    15     8    18 1   
    16     9    10 1   
    17     9    19 1   
    18    10    11 1   
    19    10    12 1   
@<TRIPOS>SUBSTRUCTURE
     1 41K         1 TEMP              0 ****  ****    0 ROOT
