@<TRIPOS>MOLECULE
molecule
   19    19     1     0     0
SMALL
bcc


@<TRIPOS>ATOM
      1 OAA          0.0000     0.0000     0.0000 o          1 41K      -0.841300
      2 CAE          1.3430     0.0000     0.0000 c          1 41K       0.917600
      3 OAD          1.9470     0.0000    -1.0470 o          1 41K      -0.841300
      4 CAF          2.0960     0.0000     1.3050 c3         1 41K       0.218300
      5 CAB          1.6080     1.1390     2.2030 c3         1 41K      -0.090100
      6 N            3.5520     0.1200     1.0620 n7         1 41K      -0.754200
      7 SAK          1.9040    -1.6150     2.1540 ss         1 41K      -0.474200
      8 CB           3.6960    -2.0110     2.2420 c3         1 41K       0.078700
      9 CA           4.3200    -0.5950     2.0980 c3         1 41K       0.052500
     10 C            5.7620    -0.7110     1.6780 c          1 41K       0.902600
     11 O            6.1240    -0.2480     0.6230 o          1 41K      -0.854300
     12 OXT          6.6460    -1.3300     2.4770 o          1 41K      -0.854300
     13 H2           2.3140     1.2890     3.0110 hc         1 41K       0.022367
     14 H3           1.5270     2.0490     1.6200 hc         1 41K       0.022367
     15 H4           0.6380     0.8850     2.6130 hc         1 41K       0.022367
     16 H5           3.8110     1.0870     1.0610 hn         1 41K       0.349800
     17 H7           3.9920    -2.6510     1.4190 h1         1 41K       0.060200
     18 H8           3.9490    -2.4510     3.1990 h1         1 41K       0.060200
     19 H9           4.2470    -0.0650     3.0400 h1         1 41K       0.003700
@<TRIPOS>BOND
     1     3     2 1   
     2     5     4 1   
     3     7     4 1   
     4     7     8 1   
     5     2     4 1   
     6     2     1 1   
     7     4     6 1   
     8     8     9 1   
     9     6     9 1   
    10     9    10 1   
    11    10    11 1   
    12    10    12 1   
    13     5    13 1   
    14     5    14 1   
    15     5    15 1   
    16     6    16 1   
    17     8    17 1   
    18     8    18 1   
    19     9    19 1   
@<TRIPOS>SUBSTRUCTURE
     1 41K         1 TEMP              0 ****  ****    0 ROOT
