@<TRIPOS>MOLECULE
41L
   32    34     1     0     0
SMALL
bcc


@<TRIPOS>ATOM
      1 C1           0.0000     0.0000     0.0000 ca         1 41L      -0.083300
      2 C2          -0.7530     0.0060    -1.3060 c3         1 41L      -0.026100
      3 C3          -0.9970     1.4290    -1.7380 c          1 41L       0.580100
      4 N4          -1.6590     1.6800    -2.8850 ns         1 41L      -0.196200
      5 N5          -1.8860     3.0020    -3.2880 na         1 41L       0.304100
      6 O6          -0.5990     2.3480    -1.0550 o          1 41L      -0.618100
      7 C7           1.3820     0.0000     0.0000 ca         1 41L      -0.082000
      8 C8           2.0740     0.0000     1.1970 ca         1 41L      -0.096000
      9 C9           1.3820     0.0020     2.3940 ca         1 41L      -0.094000
     10 C10         -0.0000     0.0030     2.3930 ca         1 41L      -0.096000
     11 C11         -0.6910     0.0020     1.1960 ca         1 41L      -0.082000
     12 C12         -2.5490     3.4070    -4.4290 ca         1 41L      -0.275200
     13 C13         -2.5300     4.8120    -4.4100 ca         1 41L       0.076400
     14 N14         -1.8710     5.1840    -3.2830 nc         1 41L      -0.525100
     15 C15         -1.4990     4.1250    -2.6240 cd         1 41L       0.270700
     16 C16         -3.1650     2.7400    -5.4780 ca         1 41L      -0.093000
     17 C17         -3.7540     3.4610    -6.4950 ca         1 41L      -0.088000
     18 C18         -3.7360     4.8480    -6.4760 ca         1 41L      -0.119000
     19 C19         -3.1340     5.5220    -5.4520 ca         1 41L      -0.035000
     20 H2          -1.7020    -0.5010    -1.1770 hc         1 41L       0.033700
     21 H2A         -0.1700    -0.5070    -2.0610 hc         1 41L       0.033700
     22 HN4         -1.9840     0.9210    -3.4520 hn         1 41L       0.203500
     23 H7           1.9240    -0.0010    -0.9380 ha         1 41L       0.102000
     24 H8           3.1570    -0.0010     1.1980 ha         1 41L       0.103000
     25 H9           1.9240     0.0020     3.3320 ha         1 41L       0.103000
     26 H10         -0.5420     0.0050     3.3320 ha         1 41L       0.103000
     27 H11         -1.7750     0.0030     1.1960 ha         1 41L       0.102000
     28 H15         -0.9590     4.1350    -1.6850 h5         1 41L       0.080800
     29 H16         -3.1830     1.6570    -5.4990 ha         1 41L       0.092000
     30 H17         -4.2350     2.9410    -7.3140 ha         1 41L       0.102000
     31 H18         -4.2030     5.4020    -7.2810 ha         1 41L       0.105000
     32 H19         -3.1260     6.6050    -5.4460 ha         1 41L       0.111000
@<TRIPOS>BOND
     1     1     2 1   
     2     1     7 ar  
     3     1    11 ar  
     4     2     3 1   
     5     2    20 1   
     6     2    21 1   
     7     3     4 1   
     8     3     6 2   
     9     4     5 1   
    10     4    22 1   
    11     5    12 1   
    12     5    15 1   
    13     7     8 ar  
    14     7    23 1   
    15     8     9 ar  
    16     8    24 1   
    17     9    10 ar  
    18     9    25 1   
    19    10    11 ar  
    20    10    26 1   
    21    11    27 1   
    22    12    13 ar  
    23    12    16 ar  
    24    13    14 1   
    25    13    19 ar  
    26    14    15 2   
    27    15    28 1   
    28    16    17 ar  
    29    16    29 1   
    30    17    18 ar  
    31    17    30 1   
    32    18    19 ar  
    33    18    31 1   
    34    19    32 1   
@<TRIPOS>SUBSTRUCTURE
     1 41L         1 TEMP              0 ****  ****    0 ROOT
