@<TRIPOS>MOLECULE
molecule
   56    57     1     0     0
SMALL
bcc


@<TRIPOS>ATOM
      1 N1           0.0000     0.0000     0.0000 ns         1 41M      -0.600900
      2 C2           1.3410     0.0000     0.0000 c          1 41M       0.819500
      3 N3           1.8830     0.0000     1.2260 ns         1 41M      -0.594900
      4 C4          -0.4800    -0.0000     1.3910 c3         1 41M       0.094700
      5 C5           0.8050     0.0000     2.2270 c3         1 41M       0.091700
      6 C6           0.9320     1.2590     3.1090 c3         1 41M       0.017700
      7 S7          -0.0980     2.4880     2.2090 ss         1 41M      -0.345200
      8 C8          -1.3320     1.2610     1.6340 c3         1 41M       0.021400
      9 C9          -1.9900     1.7300     0.3340 c3         1 41M      -0.062400
     10 C10         -2.9240     2.9050     0.6300 c3         1 41M      -0.086400
     11 C11         -3.5820     3.3730    -0.6700 c3         1 41M      -0.067400
     12 C12         -4.5170     4.5470    -0.3740 c3         1 41M      -0.152400
     13 C13         -5.1640     5.0090    -1.6540 c          1 41M       0.662100
     14 N14         -6.0330     6.0400    -1.6360 ns         1 41M      -0.604900
     15 C15         -6.6630     6.4880    -2.8800 c3         1 41M       0.122000
     16 C16         -7.5970     7.6620    -2.5850 c3         1 41M      -0.098400
     17 C17         -8.2550     8.1310    -3.8840 c3         1 41M      -0.088400
     18 C18         -9.1890     9.3060    -3.5880 c3         1 41M      -0.119400
     19 C19         -9.8470     9.7740    -4.8870 c3         1 41M       0.033500
     20 C20        -10.8580    10.8480    -4.5790 c          1 41M       0.466100
     21 N21        -12.0810    10.5120    -4.1220 nz         1 41M      -0.674400
     22 O22          2.0040     0.0000    -1.0190 o          1 41M      -0.672500
     23 O23         -4.9040     4.4530    -2.6990 o          1 41M      -0.586100
     24 N24         -8.8200    10.3130    -5.7900 nz         1 41M      -0.799600
     25 O25        -10.5720    12.0160    -4.7440 o          1 41M      -0.361100
     26 H1          -0.5810    -0.0000    -0.8150 hn         1 41M       0.361500
     27 H2           2.8630    -0.0000     1.4270 hn         1 41M       0.367500
     28 H3          -1.0600    -0.8930     1.5900 h1         1 41M       0.071700
     29 H4           0.8580    -0.8940     2.8360 h1         1 41M       0.074700
     30 H5           0.5310     1.0750     4.0980 h1         1 41M       0.086200
     31 H6           1.9630     1.5880     3.1590 h1         1 41M       0.086200
     32 H7          -2.0730     1.0780     2.4020 h1         1 41M       0.077700
     33 H8          -1.2240     2.0440    -0.3650 hc         1 41M       0.061700
     34 H9          -2.5590     0.9150    -0.0970 hc         1 41M       0.061700
     35 H10         -3.6900     2.5900     1.3290 hc         1 41M       0.049200
     36 H11         -2.3550     3.7200     1.0600 hc         1 41M       0.049200
     37 H12         -2.8160     3.6880    -1.3690 hc         1 41M       0.062200
     38 H13         -4.1500     2.5580    -1.1010 hc         1 41M       0.062200
     39 H14         -3.9480     5.3620     0.0580 hc         1 41M       0.066700
     40 H15         -5.2820     4.2320     0.3250 hc         1 41M       0.066700
     41 H16         -6.2490     6.4980    -0.7730 hn         1 41M       0.316500
     42 H17         -5.8980     6.8020    -3.5800 h1         1 41M       0.058200
     43 H18         -7.2330     5.6730    -3.3110 h1         1 41M       0.058200
     44 H19         -7.0270     8.4770    -2.1540 hc         1 41M       0.064200
     45 H20         -8.3620     7.3480    -1.8850 hc         1 41M       0.064200
     46 H21         -8.8250     7.3160    -4.3140 hc         1 41M       0.058200
     47 H22         -7.4900     8.4460    -4.5830 hc         1 41M       0.058200
     48 H23         -9.9550     8.9920    -2.8890 hc         1 41M       0.097200
     49 H24         -8.6200    10.1210    -3.1580 hc         1 41M       0.097200
     50 H25        -10.3430     8.9370    -5.3630 hx         1 41M       0.143700
     51 H26        -12.7660    11.1260    -4.5180 hn         1 41M       0.503133
     52 H27        -12.2880     9.5690    -4.3850 hn         1 41M       0.503133
     53 H28         -8.3480     9.5580    -6.2460 hn         1 41M       0.486467
     54 H29         -9.2540    10.8980    -6.4760 hn         1 41M       0.486467
     55 H213       -12.0800    10.5290    -3.1210 hn         1 41M       0.503133
     56 H243        -8.1290    10.8000    -5.2560 hn         1 41M       0.486467
@<TRIPOS>BOND
     1    22     2 2
     2     2     1 1
     3     2     3 1
     4     1     4 1
     5    11    12 1
     6    11    10 1
     7     9    10 1
     8     9     8 1
     9    12    13 1
    10     3     5 1
    11     4     8 1
    12     4     5 1
    13     8     7 1
    14    23    13 2
    15     7     6 1
    16    13    14 1
    17     5     6 1
    18    14    15 1
    19    15    16 1
    20    16    17 1
    21    17    18 1
    22    18    19 1
    23    19    24 1
    24    19    20 1
    25    20    21 1
    26    20    25 2
    27     1    26 1
    28     3    27 1
    29     4    28 1
    30     5    29 1
    31     6    30 1
    32     6    31 1
    33     8    32 1
    34     9    33 1
    35     9    34 1
    36    10    35 1
    37    10    36 1
    38    11    37 1
    39    11    38 1
    40    12    39 1
    41    12    40 1
    42    14    41 1
    43    15    42 1
    44    15    43 1
    45    16    44 1
    46    16    45 1
    47    17    46 1
    48    17    47 1
    49    18    48 1
    50    18    49 1
    51    19    50 1
    52    21    51 1
    53    21    52 1
    54    24    53 1
    55    24    54 1
    56    55    21 1
    57    56    24 1
@<TRIPOS>SUBSTRUCTURE
     1 41M         1 TEMP              0 ****  ****    0 ROOT
