@<TRIPOS>MOLECULE
41N
   46    49     1     0     0
SMALL
bcc


@<TRIPOS>ATOM
      1 C3           0.0000     0.0000     0.0000 ca         1 41N      -0.040000
      2 C4           1.3960     0.0000     0.0000 ca         1 41N      -0.151600
      3 O8           1.8240     0.0020     3.7020 os         1 41N      -0.313900
      4 C11          2.1370    -0.0010    -1.2770 c          1 41N       0.617700
      5 C14          3.8840     0.9060    -2.7400 c3         1 41N       0.032500
      6 C15          3.9840     2.3800    -3.1460 c3         1 41N       0.118300
      7 C2          -0.6900     0.0060     1.1930 ca         1 41N      -0.096000
      8 C5           2.0920     0.0000     1.2130 ca         1 41N      -0.086000
      9 C6           1.3950     0.0010     2.4060 ca         1 41N       0.049100
     10 C7          -0.0000     0.0120     2.3990 ca         1 41N       0.076100
     11 C9           0.6860     0.4350     4.4800 c3         1 41N       0.432200
     12 O10         -0.4420     0.0180     3.6890 os         1 41N      -0.310900
     13 O12          1.7970    -0.7460    -2.1760 o          1 41N      -0.641100
     14 N13          3.1900     0.8240    -1.4460 n          1 41N      -0.153800
     15 N16          4.6080     3.1430    -2.0570 nh         1 41N      -0.354000
     16 C17          3.7820     3.1100    -0.8420 c3         1 41N       0.118300
     17 C18          3.6740     1.6660    -0.3410 c3         1 41N       0.032500
     18 C20          4.8630     4.4510    -2.4490 ca         1 41N       0.050600
     19 C21          5.4550     5.3410    -1.5550 ca         1 41N      -0.169000
     20 C22          5.7100     6.6270    -1.9360 ca         1 41N      -0.018500
     21 C23          5.3740     7.0510    -3.2290 ca         1 41N      -0.219600
     22 C24          4.7800     6.1530    -4.1250 ca         1 41N      -0.018500
     23 C25          4.5340     4.8670    -3.7370 ca         1 41N      -0.169000
     24 C26          5.6460     8.4330    -3.6430 c          1 41N       0.628700
     25 C27          5.1710     8.9240    -4.9870 c3         1 41N      -0.092100
     26 O28          6.2510     9.1800    -2.9040 o          1 41N      -0.565100
     27 H1          -0.5410    -0.0110    -0.9380 ha         1 41N       0.124000
     28 H3           3.3220     0.3600    -3.4890 h1         1 41N       0.044450
     29 H4           4.5890     2.4670    -4.0400 h1         1 41N       0.028200
     30 H5           2.9910     2.7690    -3.3360 h1         1 41N       0.028200
     31 H6          -1.7730     0.0060     1.1900 ha         1 41N       0.117000
     32 H7           3.1750    -0.0000     1.2170 ha         1 41N       0.127000
     33 H8           0.6760    -0.0770     5.4340 h2         1 41N       0.016700
     34 H9           0.6930     1.5150     4.5720 h2         1 41N       0.016700
     35 H10          2.7920     3.4880    -1.0690 h1         1 41N       0.028200
     36 H11          4.2420     3.7230    -0.0770 h1         1 41N       0.028200
     37 H12          2.9750     1.6190     0.4850 h1         1 41N       0.044450
     38 H13          4.6490     1.3190    -0.0210 h1         1 41N       0.044450
     39 H14          5.7140     5.0110    -0.5560 ha         1 41N       0.122500
     40 H15          6.1700     7.3180    -1.2400 ha         1 41N       0.115000
     41 H16          4.5210     6.4760    -5.1260 ha         1 41N       0.115000
     42 H17          4.0740     4.1710    -4.4280 ha         1 41N       0.122500
     43 H18          5.3980     9.9780    -5.0870 hc         1 41N       0.025367
     44 H19          5.6720     8.3700    -5.7710 hc         1 41N       0.025367
     45 H20          4.1000     8.7760    -5.0670 hc         1 41N       0.025367
     46 H2           4.8780     0.4870    -2.6460 h1         1 41N       0.044450
@<TRIPOS>BOND
     1     1     2 ar  
     2     1     7 ar  
     3     1    27 1   
     4     2     4 1   
     5     2     8 ar  
     6     3     9 1   
     7     3    11 1   
     8     4    13 2   
     9     4    14 1   
    10     5     6 1   
    11     5    14 1   
    12     5    28 1   
    13     5    46 1   
    14     6    15 1   
    15     6    29 1   
    16     6    30 1   
    17     7    10 ar  
    18     7    31 1   
    19     8     9 ar  
    20     8    32 1   
    21     9    10 ar  
    22    10    12 1   
    23    11    12 1   
    24    11    33 1   
    25    11    34 1   
    26    14    17 1   
    27    15    16 1   
    28    15    18 1   
    29    16    17 1   
    30    16    35 1   
    31    16    36 1   
    32    17    37 1   
    33    17    38 1   
    34    18    19 ar  
    35    18    23 ar  
    36    19    20 ar  
    37    19    39 1   
    38    20    21 ar  
    39    20    40 1   
    40    21    22 ar  
    41    21    24 1   
    42    22    23 ar  
    43    22    41 1   
    44    23    42 1   
    45    24    25 1   
    46    24    26 2   
    47    25    43 1   
    48    25    44 1   
    49    25    45 1   
@<TRIPOS>SUBSTRUCTURE
     1 41N         1 TEMP              0 ****  ****    0 ROOT
