@<TRIPOS>MOLECULE
41O
   42    45     1     0     0
SMALL
bcc


@<TRIPOS>ATOM
      1 C7           0.0000     0.0000     0.0000 ca         1 41O      -0.040000
      2 C3           0.0060     0.0100     2.3970 ca         1 41O      -0.080000
      3 C4           1.3890     0.0110     2.4030 ca         1 41O      -0.098000
      4 C5           2.0870     0.0000     1.2130 ca         1 41O      -0.097000
      5 C30          5.8390     5.0830    -1.6600 ca         1 41O      -0.099000
      6 C29          6.2260     6.3240    -2.1330 ca         1 41O      -0.058800
      7 C31          6.8350     7.5000    -1.4720 cc         1 41O      -0.019200
      8 C32          7.0240     8.4800    -2.3660 cd         1 41O      -0.216200
      9 C33          6.5510     8.0180    -3.6850 c          1 41O       0.620900
     10 O34          6.5710     8.6490    -4.7240 o          1 41O      -0.518100
     11 C28          6.0470     6.6340    -3.4960 ca         1 41O      -0.225600
     12 C27          5.4900     5.7040    -4.3570 ca         1 41O       0.016000
     13 C26          5.1050     4.4590    -3.8760 ca         1 41O      -0.183000
     14 C25          5.2790     4.1450    -2.5380 ca         1 41O       0.041600
     15 N22          4.8930     2.8980    -2.0630 nh         1 41O      -0.355000
     16 C23          4.3260     2.0770    -3.1420 c3         1 41O       0.117800
     17 C24          4.0800     0.6560    -2.6230 c3         1 41O       0.036500
     18 C21          3.9510     3.0290    -0.9440 c3         1 41O       0.117800
     19 C20          3.6900     1.6470    -0.3350 c3         1 41O       0.036500
     20 N19          3.2580     0.7380    -1.4060 n          1 41O      -0.153800
     21 O11          1.7380    -0.6660    -2.2130 o          1 41O      -0.638100
     22 C6           1.3950     0.0000     0.0000 ca         1 41O      -0.141600
     23 C8          -0.6870     0.0040     1.1980 ca         1 41O      -0.046600
     24 Cl9         -2.4230     0.0040     1.2020 cl         1 41O      -0.014400
     25 H1          -0.5430    -0.0020    -0.9370 ha         1 41O       0.132000
     26 H2          -0.5380     0.0160     3.3340 ha         1 41O       0.116000
     27 H3           1.9260     0.0130     3.3440 ha         1 41O       0.109000
     28 H4           3.1710     0.0000     1.2200 ha         1 41O       0.118000
     29 H5           5.9740     4.8340    -0.6140 ha         1 41O       0.116000
     30 H6           7.5430     7.3600    -0.6640 ha         1 41O       0.124000
     31 H7           6.8870     9.5140    -2.0730 ha         1 41O       0.139000
     32 H8           5.3520     5.9480    -5.4030 ha         1 41O       0.112000
     33 H9           4.6720     3.7300    -4.5500 ha         1 41O       0.130000
     34 H10          3.3870     2.5090    -3.4680 h1         1 41O       0.029700
     35 H11          5.0220     2.0420    -3.9720 h1         1 41O       0.029700
     36 H12          5.0280     0.1860    -2.3890 h1         1 41O       0.042700
     37 H13          3.5570     0.0800    -3.3760 h1         1 41O       0.042700
     38 H14          3.0190     3.4460    -1.3040 h1         1 41O       0.029700
     39 H15          4.3770     3.6800    -0.1900 h1         1 41O       0.029700
     40 H16          2.9110     1.7220     0.4140 h1         1 41O       0.042700
     41 H17          4.6010     1.2710     0.1160 h1         1 41O       0.042700
     42 C10          2.1380     0.0000    -1.2780 c          1 41O       0.613700
@<TRIPOS>BOND
     1     1    22 ar  
     2     1    23 ar  
     3     1    25 1   
     4     2     3 ar  
     5     2    23 ar  
     6     2    26 1   
     7     3     4 ar  
     8     3    27 1   
     9     4    22 ar  
    10     4    28 1   
    11     5     6 ar  
    12     5    14 ar  
    13     5    29 1   
    14     6     7 1   
    15     6    11 ar  
    16     7     8 2   
    17     7    30 1   
    18     8     9 1   
    19     8    31 1   
    20     9    10 2   
    21     9    11 1   
    22    11    12 ar  
    23    12    13 ar  
    24    12    32 1   
    25    13    14 ar  
    26    13    33 1   
    27    14    15 1   
    28    15    16 1   
    29    15    18 1   
    30    16    17 1   
    31    16    34 1   
    32    16    35 1   
    33    17    20 1   
    34    17    36 1   
    35    17    37 1   
    36    18    19 1   
    37    18    38 1   
    38    18    39 1   
    39    19    20 1   
    40    19    40 1   
    41    19    41 1   
    42    20    42 1   
    43    21    42 2   
    44    22    42 1   
    45    23    24 1   
@<TRIPOS>SUBSTRUCTURE
     1 41O         1 TEMP              0 ****  ****    0 ROOT
