@<TRIPOS>MOLECULE
molecule
   42    45     1     0     0
SMALL
bcc


@<TRIPOS>ATOM
      1 C7           0.0000     0.0000     0.0000 ca         1 41O      -0.069000
      2 C3           0.0060     0.0100     2.3970 ca         1 41O      -0.103000
      3 C4           1.3890     0.0110     2.4030 ca         1 41O      -0.130000
      4 C5           2.0870     0.0000     1.2130 ca         1 41O      -0.113000
      5 C30          5.8390     5.0830    -1.6600 ca         1 41O      -0.129000
      6 C29          6.2260     6.3240    -2.1330 ca         1 41O      -0.056800
      7 C31          6.8350     7.5000    -1.4720 cc         1 41O      -0.055200
      8 C32          7.0240     8.4800    -2.3660 cd         1 41O      -0.230200
      9 C33          6.5510     8.0180    -3.6850 c          1 41O       0.565900
     10 O34          6.5710     8.6490    -4.7240 o          1 41O      -0.489100
     11 C28          6.0470     6.6340    -3.4960 ca         1 41O      -0.214600
     12 C27          5.4900     5.7040    -4.3570 ca         1 41O      -0.028000
     13 C26          5.1050     4.4590    -3.8760 ca         1 41O      -0.196000
     14 C25          5.2790     4.1450    -2.5380 ca         1 41O       0.127600
     15 N22          4.8930     2.8980    -2.0630 nh         1 41O      -0.596000
     16 C23          4.3260     2.0770    -3.1420 c3         1 41O       0.145800
     17 C24          4.0800     0.6560    -2.6230 c3         1 41O       0.101000
     18 C21          3.9510     3.0290    -0.9440 c3         1 41O       0.145800
     19 C20          3.6900     1.6470    -0.3350 c3         1 41O       0.101000
     20 N19          3.2580     0.7380    -1.4060 n          1 41O      -0.491800
     21 O11          1.7380    -0.6660    -2.2130 o          1 41O      -0.597100
     22 C6           1.3950     0.0000     0.0000 ca         1 41O      -0.135600
     23 C8          -0.6870     0.0040     1.1980 ca         1 41O       0.019400
     24 Cl9         -2.4230     0.0040     1.2020 cl         1 41O      -0.097400
     25 H1          -0.5430    -0.0020    -0.9370 ha         1 41O       0.165000
     26 H2          -0.5380     0.0160     3.3340 ha         1 41O       0.147000
     27 H3           1.9260     0.0130     3.3440 ha         1 41O       0.141000
     28 H4           3.1710     0.0000     1.2200 ha         1 41O       0.142000
     29 H5           5.9740     4.8340    -0.6140 ha         1 41O       0.140000
     30 H6           7.5430     7.3600    -0.6640 ha         1 41O       0.156000
     31 H7           6.8870     9.5140    -2.0730 ha         1 41O       0.168000
     32 H8           5.3520     5.9480    -5.4030 ha         1 41O       0.146000
     33 H9           4.6720     3.7300    -4.5500 ha         1 41O       0.145000
     34 H10          3.3870     2.5090    -3.4680 h1         1 41O       0.054700
     35 H11          5.0220     2.0420    -3.9720 h1         1 41O       0.054700
     36 H12          5.0280     0.1860    -2.3890 h1         1 41O       0.068700
     37 H13          3.5570     0.0800    -3.3760 h1         1 41O       0.068700
     38 H14          3.0190     3.4460    -1.3040 h1         1 41O       0.054700
     39 H15          4.3770     3.6800    -0.1900 h1         1 41O       0.054700
     40 H16          2.9110     1.7220     0.4140 h1         1 41O       0.068700
     41 H17          4.6010     1.2710     0.1160 h1         1 41O       0.068700
     42 C10          2.1380     0.0000    -1.2780 c          1 41O       0.678700
@<TRIPOS>BOND
     1    21    42 2
     2    24    23 1
     3     2    23 ar
     4     2     3 ar
     5    23     1 ar
     6     3     4 ar
     7     1    22 ar
     8     4    22 ar
     9    22    42 1
    10    42    20 1
    11    20    17 1
    12    20    19 1
    13    17    16 1
    14    16    15 1
    15    19    18 1
    16    18    15 1
    17    15    14 1
    18    14    13 ar
    19    14     5 ar
    20    13    12 ar
    21     5     6 ar
    22    12    11 ar
    23     6    11 ar
    24     6     7 1
    25    11     9 1
    26     7     8 2
    27     9    10 2
    28     9     8 1
    29     1    25 1
    30     2    26 1
    31     3    27 1
    32     4    28 1
    33     5    29 1
    34     7    30 1
    35     8    31 1
    36    12    32 1
    37    13    33 1
    38    16    34 1
    39    16    35 1
    40    17    36 1
    41    17    37 1
    42    18    38 1
    43    18    39 1
    44    19    40 1
    45    19    41 1
@<TRIPOS>SUBSTRUCTURE
     1 41O         1 TEMP              0 ****  ****    0 ROOT
