@<TRIPOS>MOLECULE
41P
   72    75     1     0     0
SMALL
bcc


@<TRIPOS>ATOM
      1 C11          0.0000     0.0000     0.0000 c3         1 41P       0.172300
      2 C12          1.5070     0.0000     0.0000 c          1 41P       0.276100
      3 C01          4.8350     4.2790     4.0030 c3         1 41P       0.245700
      4 C03          2.8630     2.9600     4.1560 ca         1 41P       0.222600
      5 C04          2.5860     3.3240     2.8460 ca         1 41P      -0.198750
      6 C05          1.4430     2.8540     2.2280 ca         1 41P       0.029500
      7 C06          1.9940     2.1220     4.8390 ca         1 41P      -0.198750
      8 C07          0.8520     1.6560     4.2160 ca         1 41P       0.029500
      9 C08          0.5760     2.0240     2.9130 ca         1 41P      -0.215000
     10 S09         -0.8820     1.4280     2.1220 sy         1 41P       1.049700
     11 N10         -0.4880     0.0000     1.3820 nh         1 41P      -0.365400
     12 N13          2.1810     0.0000    -1.1680 nz         1 41P       0.199600
     13 O14          2.1140    -0.0010     1.0500 o          1 41P      -0.389100
     14 C15         -0.6220    -1.2060     2.0750 ca         1 41P       0.065100
     15 C16          0.4590    -1.7490     2.7340 ca         1 41P      -0.103000
     16 C17          0.3430    -2.9490     3.4290 ca         1 41P      -0.103000
     17 C18         -0.8580    -3.6250     3.4750 ca         1 41P       0.065100
     18 N19         -0.9590    -4.8290     4.1780 nh         1 41P      -0.365400
     19 C20         -0.6250    -6.0930     3.5170 c3         1 41P       0.172300
     20 C21          0.8580    -6.3400     3.6260 c          1 41P       0.276100
     21 N22          1.4120    -7.3950     2.9970 nz         1 41P       0.199600
     22 O23          1.5520    -5.5900     4.2790 o          1 41P      -0.389100
     23 S24         -1.4570    -4.8260     5.7580 sy         1 41P       1.049700
     24 C25         -3.2110    -4.9840     5.7520 ca         1 41P      -0.215000
     25 C26         -3.7910    -6.2390     5.7840 ca         1 41P       0.029500
     26 C27         -5.1670    -6.3660     5.7800 ca         1 41P      -0.198750
     27 C28         -5.9670    -5.2330     5.7420 ca         1 41P       0.222600
     28 O29         -7.3200    -5.3550     5.7320 os         1 41P      -0.290400
     29 C30         -7.8530    -6.6810     5.7670 c3         1 41P       0.245700
     30 C31         -5.3830    -3.9760     5.7080 ca         1 41P      -0.198750
     31 C32         -4.0070    -3.8540     5.7190 ca         1 41P       0.029500
     32 O33         -0.9490    -6.0180     6.3400 o          1 41P      -0.555550
     33 O34         -1.1730    -3.5300     6.2660 o          1 41P      -0.555550
     34 C35         -1.9830    -3.0950     2.8110 ca         1 41P      -0.019500
     35 C36         -1.8660    -1.8710     2.1080 ca         1 41P      -0.019500
     36 C37         -2.9890    -1.3430     1.4520 ca         1 41P      -0.107500
     37 C38         -4.1750    -2.0090     1.5040 ca         1 41P      -0.056500
     38 C39         -4.2930    -3.2100     2.2000 ca         1 41P      -0.056500
     39 C40         -3.2210    -3.7570     2.8380 ca         1 41P      -0.107500
     40 O41         -1.7970     1.1040     3.1580 o          1 41P      -0.555550
     41 O42         -1.1780     2.3500     1.0810 o          1 41P      -0.555550
     42 H111        -0.3610     0.8840    -0.5110 h1         1 41P       0.064950
     43 H112        -0.3610    -0.8850    -0.5110 h1         1 41P       0.064950
     44 H013         5.6800     4.5830     4.6090 h1         1 41P       0.006367
     45 H011         4.2760     5.1560     3.6960 h1         1 41P       0.006367
     46 H012         5.1900     3.7520     3.1260 h1         1 41P       0.006367
     47 H041         3.2650     3.9740     2.3080 ha         1 41P       0.136750
     48 H051         1.2250     3.1390     1.2050 ha         1 41P       0.124000
     49 H061         2.2100     1.8330     5.8610 ha         1 41P       0.136750
     50 H071         0.1730     1.0030     4.7500 ha         1 41P       0.124000
     51 H131         3.1650    -0.0150    -0.9850 hn         1 41P       0.246967
     52 H132         1.9510     0.8250    -1.6860 hn         1 41P       0.246967
     53 H161         1.4130    -1.2350     2.7110 ha         1 41P       0.121000
     54 H171         1.2060    -3.3580     3.9400 ha         1 41P       0.121000
     55 H201        -1.1620    -6.9030     3.9950 h1         1 41P       0.064950
     56 H202        -0.9070    -6.0400     2.4720 h1         1 41P       0.064950
     57 H221         2.0420    -7.8610     3.6190 hn         1 41P       0.246967
     58 H222         1.9130    -7.0780     2.1910 hn         1 41P       0.246967
     59 H261        -3.1670    -7.1230     5.8420 ha         1 41P       0.124000
     60 H271        -5.6210    -7.3470     5.8580 ha         1 41P       0.136750
     61 H301        -7.5000    -7.2360     4.9060 h1         1 41P       0.006367
     62 H302        -8.9350    -6.6360     5.7490 h1         1 41P       0.006367
     63 H303        -7.5270    -7.1770     6.6740 h1         1 41P       0.006367
     64 H311        -6.0050    -3.0890     5.7300 ha         1 41P       0.136750
     65 H321        -3.8570    -3.0280     6.4040 ha         1 41P       0.124000
     66 H371        -2.9130    -0.4100     0.9070 ha         1 41P       0.115000
     67 H381        -5.0430    -1.5940     1.0050 ha         1 41P       0.119000
     68 H391        -5.2480    -3.7210     2.2270 ha         1 41P       0.119000
     69 H401        -3.3270    -4.6920     3.3760 ha         1 41P       0.115000
     70 H133         1.9400    -0.8170    -1.6930 hn         1 41P       0.246967
     71 H223         0.6930    -8.0340     2.7210 hn         1 41P       0.246967
     72 O02          3.9860     3.4200     4.7660 os         1 41P      -0.290400
@<TRIPOS>BOND
     1     1     2 1   
     2     1    11 1   
     3     1    42 1   
     4     1    43 1   
     5     2    12 1   
     6     2    13 2   
     7     3    44 1   
     8     3    45 1   
     9     3    46 1   
    10     3    72 1   
    11     4     5 ar  
    12     4     7 ar  
    13     4    72 1   
    14     5     6 ar  
    15     5    47 1   
    16     6     9 ar  
    17     6    48 1   
    18     7     8 ar  
    19     7    49 1   
    20     8     9 ar  
    21     8    50 1   
    22     9    10 1   
    23    10    11 1   
    24    10    40 2   
    25    10    41 2   
    26    11    14 1   
    27    12    51 1   
    28    12    52 1   
    29    12    70 1   
    30    14    15 ar  
    31    14    35 ar  
    32    15    16 ar  
    33    15    53 1   
    34    16    17 ar  
    35    16    54 1   
    36    17    18 1   
    37    17    34 ar  
    38    18    19 1   
    39    18    23 1   
    40    19    20 1   
    41    19    55 1   
    42    19    56 1   
    43    20    21 1   
    44    20    22 2   
    45    21    57 1   
    46    21    58 1   
    47    21    71 1   
    48    23    24 1   
    49    23    32 2   
    50    23    33 2   
    51    24    25 ar  
    52    24    31 ar  
    53    25    26 ar  
    54    25    59 1   
    55    26    27 ar  
    56    26    60 1   
    57    27    28 1   
    58    27    30 ar  
    59    28    29 1   
    60    29    61 1   
    61    29    62 1   
    62    29    63 1   
    63    30    31 ar  
    64    30    64 1   
    65    31    65 1   
    66    34    35 ar  
    67    34    39 ar  
    68    35    36 ar  
    69    36    37 ar  
    70    36    66 1   
    71    37    38 ar  
    72    37    67 1   
    73    38    39 ar  
    74    38    68 1   
    75    39    69 1   
@<TRIPOS>SUBSTRUCTURE
     1 41P         1 TEMP              0 ****  ****    0 ROOT
