@<TRIPOS>MOLECULE
41R
   49    49     1     0     0
SMALL
bcc


@<TRIPOS>ATOM
      1 C1           0.0000     0.0000     0.0000 c          1 41R       0.559100
      2 C2           1.5070     0.0000     0.0000 c3         1 41R       0.137500
      3 C3           3.5450    -0.0750     1.4440 c3         1 41R      -0.009600
      4 O4          -0.6070    -0.9410     0.4680 o          1 41R      -0.612100
      5 C11          1.5780    -2.5250    -0.2380 c3         1 41R       0.223800
      6 C12          0.7160    -3.1850    -1.3170 c3         1 41R      -0.112700
      7 C13          0.2360    -4.5490    -0.8220 c3         1 41R      -0.000100
      8 C19          5.2320    -2.5020    -1.3310 ca         1 41R       0.029000
      9 C20          6.5190    -2.6610    -0.8530 ca         1 41R      -0.148300
     10 C21          7.2350    -1.5590    -0.4140 ca         1 41R       0.155900
     11 C22          6.6580    -0.3010    -0.4540 ca         1 41R      -0.162000
     12 N3          -0.6750     1.0470    -0.5150 ns         1 41R      -0.050400
     13 C6           2.0160     0.0000     1.4430 c3         1 41R      -0.066700
     14 N7           1.9950    -1.1960    -0.6900 n3         1 41R      -0.498500
     15 S8           3.0190    -1.0450    -1.9830 sy         1 41R       1.052200
     16 O9           2.7650    -2.1590    -2.8280 o          1 41R      -0.588300
     17 O10          2.9150     0.3030    -2.4230 o          1 41R      -0.588300
     18 C17         -0.4930    -2.2960    -1.6160 c3         1 41R      -0.000100
     19 C18          4.6600    -1.2450    -1.3750 ca         1 41R      -0.170500
     20 C23          5.3710    -0.1450    -0.9310 ca         1 41R       0.019000
     21 C25          7.1440    -4.0310    -0.8100 c3         1 41R       0.070200
     22 C4           1.5690     1.2850     2.1420 c3         1 41R      -0.009600
     23 H1           1.8680     0.8850    -0.5110 h1         1 41R       0.060700
     24 H2           3.9150     0.1180     2.4430 hc         1 41R       0.009200
     25 H3           3.8580    -1.0630     1.1270 hc         1 41R       0.009200
     26 H4           3.9440     0.6660     0.7620 hc         1 41R       0.009200
     27 H5          -2.3880     1.9540    -0.6720 ho         1 41R       0.394000
     28 H6           1.0040    -2.4320     0.6760 h1         1 41R       0.028200
     29 H7           2.4540    -3.1350    -0.0530 h1         1 41R       0.028200
     30 H8           1.3020    -3.3130    -2.2190 hc         1 41R       0.082700
     31 H9          -0.3420    -4.4210     0.0860 hc         1 41R       0.006867
     32 H10          1.0920    -5.1810    -0.6180 hc         1 41R       0.006867
     33 H11         -0.3820    -5.0120    -1.5810 hc         1 41R       0.006867
     34 H12          4.6720    -3.3640    -1.6750 ha         1 41R       0.132000
     35 H13          7.2160     0.5620    -0.1080 ha         1 41R       0.125000
     36 H14         -0.1760     1.8060    -0.9360 hn         1 41R       0.163500
     37 H15          1.6130    -0.8570     1.9680 hc         1 41R       0.053700
     38 H16         -1.1870    -2.3390    -0.7860 hc         1 41R       0.006867
     39 H17         -0.1640    -1.2740    -1.7590 hc         1 41R       0.006867
     40 H18         -0.9840    -2.6460    -2.5160 hc         1 41R       0.006867
     41 H19          4.9220     0.8400    -0.9630 ha         1 41R       0.128000
     42 H20          8.0860    -4.0160    -1.3470 hc         1 41R       0.014700
     43 H21          7.3210    -4.3160     0.2200 hc         1 41R       0.014700
     44 H22          6.4770    -4.7470    -1.2740 hc         1 41R       0.014700
     45 H23          0.5300     1.1940     2.4350 hc         1 41R       0.009200
     46 H24          1.6820     2.1230     1.4650 hc         1 41R       0.009200
     47 H25          2.1790     1.4480     3.0230 hc         1 41R       0.009200
     48 F24          8.4930    -1.7130     0.0530 f          1 41R      -0.122900
     49 O5          -2.0860     1.0980    -0.4160 oh         1 41R      -0.441100
@<TRIPOS>BOND
     1     1     2 1   
     2     1     4 2   
     3     1    12 1   
     4     2    13 1   
     5     2    14 1   
     6     2    23 1   
     7     3    13 1   
     8     3    24 1   
     9     3    25 1   
    10     3    26 1   
    11     5     6 1   
    12     5    14 1   
    13     5    28 1   
    14     5    29 1   
    15     6     7 1   
    16     6    18 1   
    17     6    30 1   
    18     7    31 1   
    19     7    32 1   
    20     7    33 1   
    21     8     9 ar  
    22     8    19 ar  
    23     8    34 1   
    24     9    10 ar  
    25     9    21 1   
    26    10    11 ar  
    27    10    48 1   
    28    11    20 ar  
    29    11    35 1   
    30    12    36 1   
    31    12    49 1   
    32    13    22 1   
    33    13    37 1   
    34    14    15 1   
    35    15    16 2   
    36    15    17 2   
    37    15    19 1   
    38    18    38 1   
    39    18    39 1   
    40    18    40 1   
    41    19    20 ar  
    42    20    41 1   
    43    21    42 1   
    44    21    43 1   
    45    21    44 1   
    46    22    45 1   
    47    22    46 1   
    48    22    47 1   
    49    27    49 1   
@<TRIPOS>SUBSTRUCTURE
     1 41R         1 TEMP              0 ****  ****    0 ROOT
