@<TRIPOS>MOLECULE
molecule
   50    50     1     0     0
SMALL
bcc


@<TRIPOS>ATOM
      1 C1           1.5300     0.0000     0.0000 c3         1 41S       0.193500
      2 C2           2.0320     0.0000     1.4210 c          1 41S       0.655100
      3 C3           1.9880     3.6940    -5.8810 c3         1 41S       0.125700
      4 O5           2.3250    -1.0860     3.5340 oh         1 41S      -0.360100
      5 N6           2.0180     1.1950    -0.6910 n3         1 41S      -0.787500
      6 C10          2.8840     0.6950    -3.2550 ca         1 41S      -0.297500
      7 C11          2.5770     1.6930    -4.1590 ca         1 41S      -0.102000
      8 C12          2.1860     1.3640    -5.4490 ca         1 41S       0.086100
      9 C13          2.1040     0.0300    -5.8270 ca         1 41S       0.158900
     10 C14          2.4130    -0.9650    -4.9170 ca         1 41S      -0.159000
     11 C15          2.8020    -0.6320    -3.6330 ca         1 41S      -0.045000
     12 O17          1.8820     2.3440    -6.3400 os         1 41S      -0.315900
     13 C19          1.3500     2.9340     0.8950 c3         1 41S      -0.112700
     14 C18          1.2960     2.4630    -0.5600 c3         1 41S       0.224800
     15 C28          0.0000     0.0000     0.0000 c3         1 41S      -0.081700
     16 N4           1.8530    -1.0860     2.1990 ns         1 41S      -0.470400
     17 O3           2.5970     0.9770     1.8640 o          1 41S      -0.558100
     18 S7           3.3870     1.1150    -1.6190 sy         1 41S       1.427200
     19 O8           3.9060     2.4350    -1.6850 o          1 41S      -0.625800
     20 O9           4.1360     0.0080    -1.1340 o          1 41S      -0.625800
     21 F16          1.7230    -0.2960    -7.0820 f          1 41S      -0.122900
     22 C5           2.7870     3.3200     1.2520 c3         1 41S      -0.076600
     23 C6           0.4370     4.1480     1.0730 c3         1 41S      -0.076600
     24 H1           1.8900    -0.8850    -0.5100 h1         1 41S       0.075700
     25 H2           1.7510     4.3710    -6.6930 h1         1 41S       0.047033
     26 H3           1.2950     3.8530    -5.0640 h1         1 41S       0.047033
     27 H4           2.9990     3.8810    -5.5390 h1         1 41S       0.047033
     28 H5           2.3050    -1.9650     3.8740 ho         1 41S       0.399000
     29 H6          -0.5200     2.0310     0.4760 hc         1 41S       0.048867
     30 H7           0.1430     1.1120     1.8340 hc         1 41S       0.048867
     31 H8          -1.5140     0.8150     1.2900 hc         1 41S       0.048867
     32 H9          -1.3230     1.0220    -1.3520 hc         1 41S       0.048867
     33 H10          0.2950     0.7240    -2.0030 hc         1 41S       0.048867
     34 H11         -0.8650    -0.6060    -1.8720 hc         1 41S       0.048867
     35 H12          2.6410     2.7330    -3.8610 ha         1 41S       0.162000
     36 H13          2.3500    -2.0060    -5.2110 ha         1 41S       0.155000
     37 H14          3.0440    -1.4130    -2.9220 ha         1 41S       0.153000
     38 H15          1.0190     2.1340     1.5460 hc         1 41S       0.089700
     39 H16          1.7560     3.2080    -1.1980 h1         1 41S       0.057200
     40 H17          0.2630     2.3230    -0.8560 h1         1 41S       0.057200
     41 H18         -0.3610    -0.9730     0.3110 hc         1 41S       0.052700
     42 H19          1.4150    -1.9040     1.8230 hn         1 41S       0.317500
     43 H20          3.0340     4.2650     0.7830 hc         1 41S       0.034700
     44 H21          3.4660     2.5540     0.8990 hc         1 41S       0.034700
     45 H22          2.8790     3.4160     2.3270 hc         1 41S       0.034700
     46 H23          0.9440     5.0360     0.7170 hc         1 41S       0.034700
     47 H24         -0.4740     4.0010     0.5060 hc         1 41S       0.034700
     48 H25          0.1950     4.2660     2.1220 hc         1 41S       0.034700
     49 C7          -0.5100     1.0670     0.9710 c3         1 41S      -0.106600
     50 C8          -0.5100     0.3070    -1.4100 c3         1 41S      -0.106600
@<TRIPOS>BOND
     1    50    15 1
     2    20    18 2
     3    49    15 1
     4    15     1 1
     5    18    19 2
     6    18     6 1
     7    18     5 1
     8     6     7 ar
     9     6    11 ar
    10     7     8 ar
    11     1     5 1
    12     1     2 1
    13    11    10 ar
    14     8    12 1
    15     8     9 ar
    16    12     3 1
    17     5    14 1
    18    10     9 ar
    19     9    21 1
    20     2    16 1
    21     2    17 2
    22    16     4 1
    23    14    13 1
    24    13    22 1
    25    13    23 1
    26     1    24 1
    27     3    25 1
    28     3    26 1
    29     3    27 1
    30     4    28 1
    31    49    29 1
    32    49    30 1
    33    49    31 1
    34    50    32 1
    35    50    33 1
    36    50    34 1
    37     7    35 1
    38    10    36 1
    39    11    37 1
    40    13    38 1
    41    14    39 1
    42    14    40 1
    43    15    41 1
    44    16    42 1
    45    22    43 1
    46    22    44 1
    47    22    45 1
    48    23    46 1
    49    23    47 1
    50    23    48 1
@<TRIPOS>SUBSTRUCTURE
     1 41S         1 TEMP              0 ****  ****    0 ROOT
