@<TRIPOS>MOLECULE
41S
   50    50     1     0     0
SMALL
bcc


@<TRIPOS>ATOM
      1 C1           1.5300     0.0000     0.0000 c3         1 41S       0.152500
      2 C2           2.0320     0.0000     1.4210 c          1 41S       0.555100
      3 C3           1.9880     3.6940    -5.8810 c3         1 41S       0.243700
      4 O5           2.3250    -1.0860     3.5340 oh         1 41S      -0.437100
      5 N6           2.0180     1.1950    -0.6910 n3         1 41S      -0.485500
      6 C10          2.8840     0.6950    -3.2550 ca         1 41S      -0.134500
      7 C11          2.5770     1.6930    -4.1590 ca         1 41S      -0.086000
      8 C12          2.1860     1.3640    -5.4490 ca         1 41S       0.097100
      9 C13          2.1040     0.0300    -5.8270 ca         1 41S       0.120900
     10 C14          2.4130    -0.9650    -4.9170 ca         1 41S      -0.130000
     11 C15          2.8020    -0.6320    -3.6330 ca         1 41S      -0.018000
     12 O17          1.8820     2.3440    -6.3400 os         1 41S      -0.294900
     13 C19          1.3500     2.9340     0.8950 c3         1 41S      -0.134700
     14 C18          1.2960     2.4630    -0.5600 c3         1 41S       0.199800
     15 C28          0.0000     0.0000     0.0000 c3         1 41S      -0.054700
     16 N4           1.8530    -1.0860     2.1990 ns         1 41S      -0.054400
     17 O3           2.5970     0.9770     1.8640 o          1 41S      -0.599100
     18 S7           3.3870     1.1150    -1.6190 sy         1 41S       1.053200
     19 O8           3.9060     2.4350    -1.6850 o          1 41S      -0.581800
     20 O9           4.1360     0.0080    -1.1340 o          1 41S      -0.581800
     21 F16          1.7230    -0.2960    -7.0820 f          1 41S      -0.116900
     22 C5           2.7870     3.3200     1.2520 c3         1 41S       0.009900
     23 C6           0.4370     4.1480     1.0730 c3         1 41S       0.009900
     24 H1           1.8900    -0.8850    -0.5100 h1         1 41S       0.044700
     25 H2           1.7510     4.3710    -6.6930 h1         1 41S       0.002033
     26 H3           1.2950     3.8530    -5.0640 h1         1 41S       0.002033
     27 H4           2.9990     3.8810    -5.5390 h1         1 41S       0.002033
     28 H5           2.3050    -1.9650     3.8740 ho         1 41S       0.392000
     29 H6          -0.5200     2.0310     0.4760 hc         1 41S       0.026033
     30 H7           0.1430     1.1120     1.8340 hc         1 41S       0.026033
     31 H8          -1.5140     0.8150     1.2900 hc         1 41S       0.026033
     32 H9          -1.3230     1.0220    -1.3520 hc         1 41S       0.026033
     33 H10          0.2950     0.7240    -2.0030 hc         1 41S       0.026033
     34 H11         -0.8650    -0.6060    -1.8720 hc         1 41S       0.026033
     35 H12          2.6410     2.7330    -3.8610 ha         1 41S       0.145000
     36 H13          2.3500    -2.0060    -5.2110 ha         1 41S       0.125000
     37 H14          3.0440    -1.4130    -2.9220 ha         1 41S       0.125000
     38 H15          1.0190     2.1340     1.5460 hc         1 41S       0.088700
     39 H16          1.7560     3.2080    -1.1980 h1         1 41S       0.034700
     40 H17          0.2630     2.3230    -0.8560 h1         1 41S       0.034700
     41 H18         -0.3610    -0.9730     0.3110 hc         1 41S       0.023700
     42 H19          1.4150    -1.9040     1.8230 hn         1 41S       0.154500
     43 H20          3.0340     4.2650     0.7830 hc         1 41S       0.006033
     44 H21          3.4660     2.5540     0.8990 hc         1 41S       0.006033
     45 H22          2.8790     3.4160     2.3270 hc         1 41S       0.006033
     46 H23          0.9440     5.0360     0.7170 hc         1 41S       0.006033
     47 H24         -0.4740     4.0010     0.5060 hc         1 41S       0.006033
     48 H25          0.1950     4.2660     2.1220 hc         1 41S       0.006033
     49 C7          -0.5100     1.0670     0.9710 c3         1 41S      -0.050100
     50 C8          -0.5100     0.3070    -1.4100 c3         1 41S      -0.050100
@<TRIPOS>BOND
     1     1     2 1   
     2     1     5 1   
     3     1    15 1   
     4     1    24 1   
     5     2    16 1   
     6     2    17 2   
     7     3    12 1   
     8     3    25 1   
     9     3    26 1   
    10     3    27 1   
    11     4    16 1   
    12     4    28 1   
    13     5    14 1   
    14     5    18 1   
    15     6     7 ar  
    16     6    11 ar  
    17     6    18 1   
    18     7     8 ar  
    19     7    35 1   
    20     8     9 ar  
    21     8    12 1   
    22     9    10 ar  
    23     9    21 1   
    24    10    11 ar  
    25    10    36 1   
    26    11    37 1   
    27    13    14 1   
    28    13    22 1   
    29    13    23 1   
    30    13    38 1   
    31    14    39 1   
    32    14    40 1   
    33    15    41 1   
    34    15    49 1   
    35    15    50 1   
    36    16    42 1   
    37    18    19 2   
    38    18    20 2   
    39    22    43 1   
    40    22    44 1   
    41    22    45 1   
    42    23    46 1   
    43    23    47 1   
    44    23    48 1   
    45    29    49 1   
    46    30    49 1   
    47    31    49 1   
    48    32    50 1   
    49    33    50 1   
    50    34    50 1   
@<TRIPOS>SUBSTRUCTURE
     1 41S         1 TEMP              0 ****  ****    0 ROOT
