@<TRIPOS>MOLECULE
41T
   53    53     1     0     0
SMALL
bcc


@<TRIPOS>ATOM
      1 C1           1.5310     0.0000     0.0000 c3         1 41T       0.164500
      2 C2           2.0320     0.0000     1.4210 c          1 41T       0.568100
      3 O5           2.5670    -1.1600     3.4450 oh         1 41T      -0.439100
      4 N6           2.0180     1.1960    -0.6900 n3         1 41T      -0.500500
      5 C7           2.9630     1.0660    -1.8030 c3         1 41T       0.239800
      6 C8           2.2020     0.6960    -3.0780 c3         1 41T      -0.093700
      7 C9           1.2990     1.8610    -3.4890 c3         1 41T      -0.009100
      8 C10          3.1990     0.4030    -4.2000 c3         1 41T      -0.009100
      9 C14          2.8600     3.4870     0.5820 ca         1 41T      -0.146500
     10 C15          3.8350     4.1100    -0.1730 ca         1 41T       0.013000
     11 C16          4.8980     4.7360     0.4510 ca         1 41T      -0.149300
     12 C19          2.9480     3.4890     1.9620 ca         1 41T       0.051000
     13 C20          5.9630     5.4160    -0.3720 c3         1 41T       0.276700
     14 C22          6.5440     7.5190    -1.3640 c3         1 41T       0.254700
     15 O3           2.4540     1.0240     1.9150 o          1 41T      -0.631100
     16 N4           2.0130    -1.1380     2.1430 ns         1 41T      -0.064400
     17 S11          1.5020     2.6960    -0.2140 sy         1 41T       1.060200
     18 O12          1.2500     3.4310    -1.4030 o          1 41T      -0.588800
     19 O13          0.5180     2.4820     0.7890 o          1 41T      -0.588800
     20 C17          4.9860     4.7390     1.8310 ca         1 41T      -0.026000
     21 C18          4.0100     4.1140     2.5860 ca         1 41T      -0.143000
     22 O21          5.5970     6.7800    -0.5900 os         1 41T      -0.411600
     23 C23          0.0000     0.0000     0.0000 c3         1 41T      -0.132700
     24 C25         -0.5090    -1.2290     0.7560 c3         1 41T      -0.006600
     25 H1           1.8920    -0.8840    -0.5110 h1         1 41T       0.034700
     26 H2           2.6640    -2.0530     3.7310 ho         1 41T       0.391000
     27 H3           3.6840     0.2910    -1.5750 h1         1 41T       0.017200
     28 H4           3.4790     2.0070    -1.9510 h1         1 41T       0.017200
     29 H5           1.5960    -0.1830    -2.8940 hc         1 41T       0.033700
     30 H6           0.7310     1.5850    -4.3680 hc         1 41T       0.012200
     31 H7           0.6200     2.0960    -2.6780 hc         1 41T       0.012200
     32 H8           1.9090     2.7290    -3.7110 hc         1 41T       0.012200
     33 H9           2.6610     0.1510    -5.1050 hc         1 41T       0.012200
     34 H10          3.8320    -0.4280    -3.9130 hc         1 41T       0.012200
     35 H11          3.8120     1.2790    -4.3770 hc         1 41T       0.012200
     36 H12          3.7670     4.1090    -1.2540 ha         1 41T       0.116000
     37 H13          2.1840     3.0000     2.5530 ha         1 41T       0.148000
     38 H14          6.9080     5.3750     0.1550 h1         1 41T      -0.010300
     39 H15          6.0590     4.9110    -1.3260 h1         1 41T      -0.010300
     40 H16          6.6520     7.0570    -2.3380 h1         1 41T      -0.014300
     41 H17          6.1960     8.5380    -1.4840 h1         1 41T      -0.014300
     42 H18          7.5010     7.5220    -0.8560 h1         1 41T      -0.014300
     43 H19         -1.5350    -0.3910    -1.4520 hc         1 41T       0.008700
     44 H20          0.1080    -0.7140    -2.0240 hc         1 41T       0.008700
     45 H21         -0.4630     0.9530    -1.8700 hc         1 41T       0.008700
     46 H22          1.6520    -1.9800     1.7400 hn         1 41T       0.167500
     47 H23          5.8180     5.2290     2.3200 ha         1 41T       0.101000
     48 H24          4.0780     4.1160     3.6670 ha         1 41T       0.108000
     49 H25         -0.3620     0.8980     0.4860 hc         1 41T       0.122700
     50 H26         -1.5280    -1.4420     0.4560 hc         1 41T       0.008700
     51 H27          0.1200    -2.0810     0.5260 hc         1 41T       0.008700
     52 H28         -0.4790    -1.0360     1.8220 hc         1 41T       0.008700
     53 C24         -0.5100    -0.0410    -1.4420 c3         1 41T      -0.006600
@<TRIPOS>BOND
     1     1     2 1   
     2     1     4 1   
     3     1    23 1   
     4     1    25 1   
     5     2    15 2   
     6     2    16 1   
     7     3    16 1   
     8     3    26 1   
     9     4     5 1   
    10     4    17 1   
    11     5     6 1   
    12     5    27 1   
    13     5    28 1   
    14     6     7 1   
    15     6     8 1   
    16     6    29 1   
    17     7    30 1   
    18     7    31 1   
    19     7    32 1   
    20     8    33 1   
    21     8    34 1   
    22     8    35 1   
    23     9    10 ar  
    24     9    12 ar  
    25     9    17 1   
    26    10    11 ar  
    27    10    36 1   
    28    11    13 1   
    29    11    20 ar  
    30    12    21 ar  
    31    12    37 1   
    32    13    22 1   
    33    13    38 1   
    34    13    39 1   
    35    14    22 1   
    36    14    40 1   
    37    14    41 1   
    38    14    42 1   
    39    16    46 1   
    40    17    18 2   
    41    17    19 2   
    42    20    21 ar  
    43    20    47 1   
    44    21    48 1   
    45    23    24 1   
    46    23    49 1   
    47    23    53 1   
    48    24    50 1   
    49    24    51 1   
    50    24    52 1   
    51    43    53 1   
    52    44    53 1   
    53    45    53 1   
@<TRIPOS>SUBSTRUCTURE
     1 41T         1 TEMP              0 ****  ****    0 ROOT
