@<TRIPOS>MOLECULE
molecule
   41    42     1     0     0
SMALL
bcc


@<TRIPOS>ATOM
      1 C16          0.0000     0.0000     0.0000 c3         1 41U       0.148100
      2 O1           2.8460     3.5320     4.6370 os         1 41U      -0.313900
      3 C15          1.9950     0.0000     1.3720 c3         1 41U       0.148800
      4 C14          3.5250     0.0010     1.3310 c3         1 41U      -0.100400
      5 C13          6.1690    -1.3640     2.8460 ca         1 41U      -0.107500
      6 C12          7.5460    -1.4780     2.8060 ca         1 41U      -0.131000
      7 C11          8.3280    -0.3500     2.6410 ca         1 41U      -0.123000
      8 C10          7.7340     0.8910     2.5160 ca         1 41U      -0.131000
      9 O            3.7120     1.2220     3.4080 os         1 41U      -0.307900
     10 C3           0.2580     1.1920     5.6720 ca         1 41U      -0.129000
     11 C2           0.6920     0.0330     5.0550 ca         1 41U      -0.129000
     12 C1           1.8480     0.0410     4.2960 ca         1 41U      -0.198000
     13 N            1.4690     0.0000     0.0000 n7         1 41U      -0.817200
     14 C            2.5740     1.2130     4.1530 ca         1 41U       0.119100
     15 C4           0.9770     2.3640     5.5330 ca         1 41U      -0.187000
     16 C9           6.3560     1.0060     2.5580 ca         1 41U      -0.107500
     17 C8           5.5750    -0.1220     2.7220 ca         1 41U      -0.092300
     18 C7           4.0730     0.0010     2.7590 c3         1 41U       0.185400
     19 C6           2.3380     4.6890     5.3020 c3         1 41U       0.127700
     20 C5           2.1370     2.3790     4.7740 ca         1 41U       0.115100
     21 H1          -0.3610    -0.0250    -1.0210 h1         1 41U       0.030367
     22 H2          -0.3610     0.8970     0.4880 h1         1 41U       0.030367
     23 H3          -0.3610    -0.8720     0.5320 h1         1 41U       0.030367
     24 H4           1.6480    -0.8850     1.8920 h1         1 41U       0.037700
     25 H5           1.6470     0.8840     1.8920 h1         1 41U       0.037700
     26 H6           3.8720     0.8860     0.8110 hc         1 41U       0.064200
     27 H7           3.8730    -0.8830     0.8110 hc         1 41U       0.064200
     28 H8           5.5560    -2.2480     2.9750 ha         1 41U       0.138000
     29 H9           8.0130    -2.4510     2.9030 ha         1 41U       0.131000
     30 H10          9.4070    -0.4400     2.6090 ha         1 41U       0.129000
     31 H11          8.3470     1.7750     2.3880 ha         1 41U       0.131000
     32 H12         -0.6490     1.1810     6.2650 ha         1 41U       0.131000
     33 H13          0.1250    -0.8830     5.1670 ha         1 41U       0.130000
     34 H14          2.1860    -0.8680     3.8140 ha         1 41U       0.144000
     35 H15          1.8020    -0.8090    -0.4850 hn         1 41U       0.347800
     36 H17          0.6350     3.2710     6.0170 ha         1 41U       0.140000
     37 H18          5.8900     1.9790     2.4610 ha         1 41U       0.138000
     38 H19          3.6550    -0.8350     3.3060 h1         1 41U       0.054700
     39 H20          1.3450     4.9130     4.9300 h1         1 41U       0.040033
     40 H21          2.9920     5.5310     5.1120 h1         1 41U       0.040033
     41 H22          2.2910     4.5020     6.3680 h1         1 41U       0.040033
@<TRIPOS>BOND
     1    10    11 ar  
     2    10    15 ar  
     3    11    12 ar  
     4    15    20 ar  
     5     6     5 ar  
     6     6     7 ar  
     7    12    14 ar  
     8     5    17 ar  
     9     7     8 ar  
    10    20    14 ar  
    11    20     2 1   
    12    14     9 1   
    13    17    18 1   
    14    17    16 ar  
    15     4    18 1   
    16     4     3 1   
    17     8    16 ar  
    18     2    19 1   
    19     9    18 1   
    20     3    13 1   
    21    13     1 1   
    22     1    21 1   
    23     1    22 1   
    24     1    23 1   
    25     3    24 1   
    26     3    25 1   
    27     4    26 1   
    28     4    27 1   
    29     5    28 1   
    30     6    29 1   
    31     7    30 1   
    32     8    31 1   
    33    10    32 1   
    34    11    33 1   
    35    12    34 1   
    36    13    35 1   
    37    15    36 1   
    38    16    37 1   
    39    18    38 1   
    40    19    39 1   
    41    19    40 1   
    42    19    41 1   
@<TRIPOS>SUBSTRUCTURE
     1 41U         1 TEMP              0 ****  ****    0 ROOT
