@<TRIPOS>MOLECULE
molecule
   73    75     1     0     0
SMALL
bcc


@<TRIPOS>ATOM
      1 C4           0.0000     0.0000     0.0000 c3         1 41V      -0.037500
      2 C5           1.5420     0.0000     0.0000 c3         1 41V      -0.053000
      3 C6           2.0750     0.0000     1.4330 c3         1 41V      -0.067400
      4 C7          -0.3560     1.4490     0.3900 c3         1 41V      -0.072400
      5 C8           0.6980     2.2980    -0.3560 c3         1 41V      -0.085400
      6 C10          2.1040    -1.1580    -0.8270 c3         1 41V      -0.082100
      7 C15         -0.2720     0.2230    -4.9700 c3         1 41V      -0.064400
      8 C17         -1.3520    -0.4030    -7.1340 c3         1 41V      -0.120600
      9 C20         -2.0800    -1.7350    -0.7620 ce         1 41V      -0.135000
     10 C21         -3.0200    -2.5910    -1.1460 c2         1 41V      -0.110400
     11 C22         -3.6720    -3.5250    -0.1500 c3         1 41V      -0.051700
     12 C24         -4.2200    -4.9880    -2.1050 c3         1 41V      -0.096400
     13 C26         -3.4710    -2.6530    -2.5880 c3         1 41V      -0.051700
     14 O29          0.4850     1.1660    -7.0620 oh         1 41V      -0.602800
     15 C16         -0.0320    -0.0230    -6.4600 c3         1 41V       0.146800
     16 C18          0.9750    -1.1620    -6.6330 c3         1 41V      -0.120600
     17 C14          1.0480     0.6040    -4.2960 c3         1 41V      -0.082400
     18 C11          2.1240     1.2250    -2.1280 c3         1 41V      -0.069700
     19 C12          2.6290     2.5510    -2.7010 c3         1 41V      -0.089100
     20 C9           1.9000     1.3740    -0.6230 c3         1 41V      -0.063700
     21 C1           1.5650    -1.2130     2.2080 c3         1 41V      -0.078400
     22 C3          -0.5640    -0.9840     0.9760 c2         1 41V      -0.100400
     23 C2           0.0440    -1.0840     2.3700 c3         1 41V      -0.037200
     24 C19         -1.5770    -1.7650     0.6210 ce         1 41V      -0.149000
     25 C25         -3.4060    -4.1100    -3.0570 c3         1 41V       0.150600
     26 O27         -2.0450    -4.5450    -3.0600 oh         1 41V      -0.607300
     27 C23         -3.6000    -4.9530    -0.7030 c3         1 41V       0.150600
     28 O28         -4.3200    -5.8350     0.1610 oh         1 41V      -0.607300
     29 H1          -0.3690    -0.2150    -0.9960 hc         1 41V       0.072700
     30 H2           3.1580    -0.0260     1.4080 hc         1 41V       0.042200
     31 H3           1.7480     0.9030     1.9330 hc         1 41V       0.042200
     32 H4          -0.2660     1.5870     1.4600 hc         1 41V       0.046200
     33 H5          -1.3540     1.6990     0.0490 hc         1 41V       0.046200
     34 H6           0.2900     2.6540    -1.2940 hc         1 41V       0.045700
     35 H7           1.0040     3.1330     0.2630 hc         1 41V       0.045700
     36 H8           1.9480    -2.0900    -0.2980 hc         1 41V       0.039033
     37 H9           1.5980    -1.1970    -1.7850 hc         1 41V       0.039033
     38 H10          3.1650    -1.0060    -0.9860 hc         1 41V       0.039033
     39 H11          0.0730     1.6370    -2.6830 hc         1 41V       0.049200
     40 H12          0.4330    -0.0620    -2.3480 hc         1 41V       0.049200
     41 H13         -0.9850     1.0290    -4.8480 hc         1 41V       0.046700
     42 H14         -0.6630    -0.6780    -4.5140 hc         1 41V       0.046700
     43 H15         -2.0840     0.3760    -6.9580 hc         1 41V       0.041033
     44 H16         -1.1940    -0.5160    -8.1990 hc         1 41V       0.041033
     45 H17         -1.7120    -1.3370    -6.7210 hc         1 41V       0.041033
     46 H18         -1.6230    -1.0730    -1.4880 ha         1 41V       0.131000
     47 H19         -3.1440    -3.4740     0.7950 hc         1 41V       0.056450
     48 H20         -4.7080    -3.2410    -0.0110 hc         1 41V       0.056450
     49 H21         -5.2360    -4.6160    -2.0560 hc         1 41V       0.055200
     50 H22         -4.2210    -6.0070    -2.4700 hc         1 41V       0.055200
     51 H23         -4.4890    -2.2920    -2.6660 hc         1 41V       0.056450
     52 H24         -2.8150    -2.0450    -3.2000 hc         1 41V       0.056450
     53 H25          0.4240     1.0960    -8.0000 ho         1 41V       0.401000
     54 H26          0.8880    -1.5730    -7.6320 hc         1 41V       0.041033
     55 H27          0.7730    -1.9370    -5.9040 hc         1 41V       0.041033
     56 H28          1.9790    -0.7810    -6.4860 hc         1 41V       0.041033
     57 H29          1.7610    -0.2020    -4.4190 hc         1 41V       0.051200
     58 H30          1.4440     1.5080    -4.7420 hc         1 41V       0.051200
     59 H31          2.8580     0.4500    -2.3090 hc         1 41V       0.056700
     60 H32          3.2210     2.3590    -3.5880 hc         1 41V       0.034367
     61 H33          1.7840     3.1780    -2.9600 hc         1 41V       0.034367
     62 H34          3.2390     3.0550    -1.9620 hc         1 41V       0.034367
     63 H35          2.7870     1.7750    -0.1480 hc         1 41V       0.053700
     64 H36          1.7960    -2.1180     1.6590 hc         1 41V       0.044200
     65 H37          2.0330    -1.2430     3.1840 hc         1 41V       0.044200
     66 H38         -0.3450    -1.9580     2.8770 hc         1 41V       0.047200
     67 H39         -0.1890    -0.1900     2.9360 hc         1 41V       0.047200
     68 H40         -2.0460    -2.4120     1.3530 ha         1 41V       0.132000
     69 H41         -3.8180    -4.1860    -4.0560 h1         1 41V       0.042700
     70 H42         -1.7470    -4.6380    -3.9500 ho         1 41V       0.399500
     71 H43         -2.5640    -5.2630    -0.7600 h1         1 41V       0.042700
     72 H44         -3.7600    -6.5490     0.4190 ho         1 41V       0.399500
     73 C13          0.8040     0.8470    -2.8060 c3         1 41V      -0.093400
@<TRIPOS>BOND
     1    21    23 1
     2    21     3 1
     3    23    22 1
     4     3     2 1
     5    16    15 1
     6    11    27 1
     7    11    10 1
     8    22    24 2
     9    22     1 1
    10     6     2 1
    11    24     9 1
    12     2     1 1
    13     2    20 1
    14    27    12 1
    15    27    28 1
    16     7    15 1
    17     7    17 1
    18    15     8 1
    19    15    14 1
    20     1     4 1
    21    10     9 2
    22    10    13 1
    23    12    25 1
    24    20    18 1
    25    20     5 1
    26    18    73 1
    27    18    19 1
    28    13    25 1
    29    17    73 1
    30     4     5 1
    31    25    26 1
    32     1    29 1
    33     3    30 1
    34     3    31 1
    35     4    32 1
    36     4    33 1
    37     5    34 1
    38     5    35 1
    39     6    36 1
    40     6    37 1
    41     6    38 1
    42    73    39 1
    43    73    40 1
    44     7    41 1
    45     7    42 1
    46     8    43 1
    47     8    44 1
    48     8    45 1
    49     9    46 1
    50    11    47 1
    51    11    48 1
    52    12    49 1
    53    12    50 1
    54    13    51 1
    55    13    52 1
    56    14    53 1
    57    16    54 1
    58    16    55 1
    59    16    56 1
    60    17    57 1
    61    17    58 1
    62    18    59 1
    63    19    60 1
    64    19    61 1
    65    19    62 1
    66    20    63 1
    67    21    64 1
    68    21    65 1
    69    23    66 1
    70    23    67 1
    71    24    68 1
    72    25    69 1
    73    26    70 1
    74    27    71 1
    75    28    72 1
@<TRIPOS>SUBSTRUCTURE
     1 41V         1 TEMP              0 ****  ****    0 ROOT
