@<TRIPOS>MOLECULE
molecule
   73    75     1     0     0
SMALL
bcc


@<TRIPOS>ATOM
      1 O29          0.0000     0.0000     0.0000 oh         1 41W      -0.603800
      2 C26          1.4290     0.0000     0.0000 c3         1 41W       0.146800
      3 C27          1.9400     0.0000     1.4420 c3         1 41W      -0.119600
      4 C28          1.9390    -1.2480    -0.7230 c3         1 41W      -0.119600
      5 C25          1.9390     1.2500    -0.7210 c3         1 41W      -0.066400
      6 C24          1.5330     2.4960     0.0700 c3         1 41W      -0.083400
      7 C23          2.0420     3.7450    -0.6520 c3         1 41W      -0.081400
      8 C20          1.6380     4.9910     0.1380 c3         1 41W      -0.070700
      9 C21          2.3480     4.9880     1.4940 c3         1 41W      -0.095100
     10 C9           2.0370     6.2440    -0.6440 c3         1 41W      -0.053700
     11 C6           1.5790     7.4940     0.0910 c3         1 41W      -0.058000
     12 C19          0.2700     7.1970     0.8250 c3         1 41W      -0.090100
     13 C1           2.5390     8.1520     1.0540 c3         1 41W      -0.066400
     14 C8           1.2990     6.2850    -2.0080 c3         1 41W      -0.086400
     15 C7           0.5150     7.6280    -2.0390 c3         1 41W      -0.078400
     16 C5           1.3020     8.5020    -1.0600 c3         1 41W      -0.034500
     17 C4           0.5590     9.6410    -0.4270 c2         1 41W      -0.099400
     18 C3           1.2870    10.3340     0.7170 c3         1 41W      -0.037200
     19 C2           1.7920     9.3130     1.7340 c3         1 41W      -0.080400
     20 C10         -0.6480    10.0180    -0.8350 ce         1 41W      -0.150000
     21 C11         -1.1520     9.5770    -2.1450 ce         1 41W      -0.142000
     22 C12         -2.4020     9.8530    -2.5030 c2         1 41W      -0.120400
     23 C17         -2.9030     9.5190    -3.8910 c3         1 41W      -0.038200
     24 C16         -4.2090     8.7280    -3.7590 c3         1 41W       0.151600
     25 O18         -3.9440     7.4700    -3.1350 oh         1 41W      -0.607300
     26 C15         -5.1990     9.5220    -2.9050 c3         1 41W      -0.122400
     27 C14         -4.6480     9.6840    -1.4870 c3         1 41W       0.151600
     28 O22         -5.6150    10.3540    -0.6750 oh         1 41W      -0.607300
     29 C13         -3.3610    10.5050    -1.5310 c3         1 41W      -0.038200
     30 H1          -0.3140    -0.8820     0.1130 ho         1 41W       0.401000
     31 H2           2.9600     0.3630     1.4640 hc         1 41W       0.041700
     32 H3           1.3140     0.6450     2.0470 hc         1 41W       0.041700
     33 H4           1.9060    -1.0080     1.8370 hc         1 41W       0.041700
     34 H5           3.0220    -1.2360    -0.7440 hc         1 41W       0.041700
     35 H6           1.5580    -1.2600    -1.7370 hc         1 41W       0.041700
     36 H7           1.5990    -2.1340    -0.1990 hc         1 41W       0.041700
     37 H8           1.5060     1.2960    -1.7140 hc         1 41W       0.048200
     38 H9           3.0180     1.2070    -0.7990 hc         1 41W       0.048200
     39 H10          1.9660     2.4500     1.0620 hc         1 41W       0.051700
     40 H11          0.4540     2.5380     0.1480 hc         1 41W       0.051700
     41 H12          3.1220     3.7020    -0.7300 hc         1 41W       0.040700
     42 H13          1.6100     3.7910    -1.6440 hc         1 41W       0.040700
     43 H14          0.5650     4.9880     0.2930 hc         1 41W       0.062700
     44 H15          3.2390     5.6010     1.4360 hc         1 41W       0.035367
     45 H16          1.6830     5.3860     2.2510 hc         1 41W       0.035367
     46 H17          2.6250     3.9730     1.7540 hc         1 41W       0.035367
     47 H18          3.1080     6.2720    -0.7980 hc         1 41W       0.051700
     48 H19          0.4880     6.7350     1.7800 hc         1 41W       0.040367
     49 H20         -0.2720     8.1210     0.9860 hc         1 41W       0.040367
     50 H21         -0.3340     6.5240     0.2280 hc         1 41W       0.040367
     51 H22          3.3960     8.5350     0.5120 hc         1 41W       0.044700
     52 H23          2.8590     7.4350     1.8000 hc         1 41W       0.044700
     53 H24          2.0170     6.2550    -2.8180 hc         1 41W       0.044200
     54 H25          0.6110     5.4520    -2.0820 hc         1 41W       0.044200
     55 H26         -0.5010     7.4860    -1.6930 hc         1 41W       0.056700
     56 H27          0.5330     8.0570    -3.0340 hc         1 41W       0.056700
     57 H28          2.2300     8.8420    -1.5030 hc         1 41W       0.061700
     58 H29          0.6060    11.0180     1.2090 hc         1 41W       0.047700
     59 H30          2.1290    10.8860     0.3190 hc         1 41W       0.047700
     60 H31          2.4650     9.8070     2.4240 hc         1 41W       0.042700
     61 H32          0.9470     8.9140     2.2810 hc         1 41W       0.042700
     62 H33         -1.2500    10.6700    -0.2140 ha         1 41W       0.132000
     63 H34         -0.4790     9.1060    -2.8520 ha         1 41W       0.149000
     64 H35         -2.1650     8.9170    -4.4080 hc         1 41W       0.057450
     65 H36         -3.0860    10.4340    -4.4410 hc         1 41W       0.057450
     66 H37         -4.6330     8.5670    -4.7430 h1         1 41W       0.041700
     67 H38         -4.4010     6.7870    -3.5980 ho         1 41W       0.399000
     68 H39         -6.1430     8.9930    -2.8650 hc         1 41W       0.051200
     69 H40         -5.3480    10.5010    -3.3460 hc         1 41W       0.051200
     70 H41         -4.4360     8.7070    -1.0710 h1         1 41W       0.041700
     71 H42         -6.1720     9.7170    -0.2590 ho         1 41W       0.399000
     72 H43         -2.9150    10.5320    -0.5450 hc         1 41W       0.057450
     73 H44         -3.5840    11.5110    -1.8630 hc         1 41W       0.057450
@<TRIPOS>BOND
     1    19    18 1
     2    19    13 1
     3    18    17 1
     4    13    11 1
     5     4     2 1
     6    12    11 1
     7    29    27 1
     8    29    22 1
     9    20    17 2
    10    20    21 1
    11    17    16 1
    12    11    16 1
    13    11    10 1
    14    27    26 1
    15    27    28 1
    16     2     3 1
    17     2     5 1
    18     2     1 1
    19     5     6 1
    20    22    21 2
    21    22    23 1
    22    16    15 1
    23     6     7 1
    24     8    10 1
    25     8     7 1
    26     8     9 1
    27    26    24 1
    28    10    14 1
    29    23    24 1
    30    15    14 1
    31    24    25 1
    32     1    30 1
    33     3    31 1
    34     3    32 1
    35     3    33 1
    36     4    34 1
    37     4    35 1
    38     4    36 1
    39     5    37 1
    40     5    38 1
    41     6    39 1
    42     6    40 1
    43     7    41 1
    44     7    42 1
    45     8    43 1
    46     9    44 1
    47     9    45 1
    48     9    46 1
    49    10    47 1
    50    12    48 1
    51    12    49 1
    52    12    50 1
    53    13    51 1
    54    13    52 1
    55    14    53 1
    56    14    54 1
    57    15    55 1
    58    15    56 1
    59    16    57 1
    60    18    58 1
    61    18    59 1
    62    19    60 1
    63    19    61 1
    64    20    62 1
    65    21    63 1
    66    23    64 1
    67    23    65 1
    68    24    66 1
    69    25    67 1
    70    26    68 1
    71    26    69 1
    72    27    70 1
    73    28    71 1
    74    29    72 1
    75    29    73 1
@<TRIPOS>SUBSTRUCTURE
     1 41W         1 TEMP              0 ****  ****    0 ROOT
