@<TRIPOS>MOLECULE
molecule
   46    48     1     0     0
SMALL
bcc


@<TRIPOS>ATOM
      1 C12          0.0000     0.0000     0.0000 c3         1 41X      -0.092100
      2 C11          1.5300     0.0000     0.0000 c3         1 41X       0.134400
      3 O2           2.0060     0.0000     1.3480 os         1 41X      -0.317900
      4 C10          3.3550     0.0000     1.5270 ca         1 41X       0.118100
      5 C9           4.2000     0.0010     0.4290 ca         1 41X      -0.191000
      6 C8           5.5700     0.0000     0.6120 ca         1 41X      -0.128000
      7 C7           6.1000    -0.0000     1.8890 ca         1 41X      -0.129000
      8 C6           5.2610    -0.0010     2.9890 ca         1 41X      -0.185000
      9 C5           3.8870     0.0050     2.8120 ca         1 41X       0.112100
     10 O1           3.0620     0.0050     3.8930 os         1 41X      -0.301900
     11 C4           3.6750     0.1190     5.1780 c3         1 41X       0.197400
     12 C13          4.1130    -1.2430     5.6490 ca         1 41X      -0.119300
     13 C18          3.3610    -2.3590     5.3320 ca         1 41X      -0.100500
     14 C17          3.7620    -3.6090     5.7640 ca         1 41X      -0.134000
     15 C16          4.9170    -3.7440     6.5130 ca         1 41X      -0.122000
     16 C15          5.6690    -2.6290     6.8280 ca         1 41X      -0.134000
     17 C14          5.2700    -1.3790     6.3930 ca         1 41X      -0.100500
     18 C            2.6690     0.7030     6.1720 c3         1 41X       0.160100
     19 O            1.5860    -0.2140     6.3500 os         1 41X      -0.408600
     20 C3           0.5730     0.2590     7.2430 c3         1 41X       0.140400
     21 C2           0.0090     1.5790     6.7130 c3         1 41X       0.116800
     22 N            1.1040     2.5460     6.5530 n7         1 41X      -0.820200
     23 C1           2.1260     2.0290     5.6310 c3         1 41X       0.119800
     24 H1          -0.3610    -0.1540    -1.0100 hc         1 41X       0.047367
     25 H2          -0.3610     0.9510     0.3720 hc         1 41X       0.047367
     26 H3          -0.3610    -0.7980     0.6380 hc         1 41X       0.047367
     27 H4           1.8920    -0.8850    -0.5100 h1         1 41X       0.032200
     28 H5           1.8920     0.8850    -0.5100 h1         1 41X       0.032200
     29 H6           3.7870     0.0020    -0.5720 ha         1 41X       0.138000
     30 H7           6.2300     0.0010    -0.2470 ha         1 41X       0.130000
     31 H8           7.1750    -0.0030     2.0290 ha         1 41X       0.131000
     32 H9           5.6780     0.0010     3.9880 ha         1 41X       0.144000
     33 H10          4.5370     0.7730     5.1100 h1         1 41X       0.058700
     34 H11          2.4560    -2.2540     4.7460 ha         1 41X       0.139000
     35 H12          3.1720    -4.4830     5.5160 ha         1 41X       0.129000
     36 H13          5.2320    -4.7230     6.8530 ha         1 41X       0.127000
     37 H14          6.5750    -2.7350     7.4130 ha         1 41X       0.129000
     38 H15          5.8610    -0.5050     6.6400 ha         1 41X       0.139000
     39 H16          3.1550     0.8760     7.1250 h1         1 41X       0.060700
     40 H17          1.0030     0.4190     8.2240 h1         1 41X       0.053200
     41 H18         -0.2220    -0.4740     7.3060 h1         1 41X       0.053200
     42 H19         -0.4650     1.4090     5.7540 h1         1 41X       0.041700
     43 H20         -0.7160     1.9690     7.4170 h1         1 41X       0.041700
     44 H21          0.7400     3.4070     6.1970 hn         1 41X       0.356800
     45 H23          1.6820     1.8650     4.6560 h1         1 41X       0.051700
     46 H24          2.9350     2.7450     5.5510 h1         1 41X       0.051700
@<TRIPOS>BOND
     1     7     6 ar
     2     7     8 ar
     3     6     5 ar
     4     8     9 ar
     5     5     4 ar
     6     9     4 ar
     7     9    10 1
     8    14    13 ar
     9    14    15 ar
    10     4     3 1
    11    13    12 ar
    12    15    16 ar
    13    10    11 1
    14    12    11 1
    15    12    17 ar
    16    16    17 ar
    17     3     2 1
    18    11    18 1
    19    23    18 1
    20    23    22 1
    21     2     1 1
    22    18    19 1
    23    22    21 1
    24    19    20 1
    25    21    20 1
    26     1    24 1
    27     1    25 1
    28     1    26 1
    29     2    27 1
    30     2    28 1
    31     5    29 1
    32     6    30 1
    33     7    31 1
    34     8    32 1
    35    11    33 1
    36    13    34 1
    37    14    35 1
    38    15    36 1
    39    16    37 1
    40    17    38 1
    41    18    39 1
    42    20    40 1
    43    20    41 1
    44    21    42 1
    45    21    43 1
    46    22    44 1
    47    23    45 1
    48    23    46 1
@<TRIPOS>SUBSTRUCTURE
     1 41X         1 TEMP              0 ****  ****    0 ROOT
