@<TRIPOS>MOLECULE
41X
   46    48     1     0     0
SMALL
bcc


@<TRIPOS>ATOM
      1 C12          0.0000     0.0000     0.0000 c3         1 41X       0.001900
      2 C11          1.5300     0.0000     0.0000 c3         1 41X       0.199400
      3 O2           2.0060     0.0000     1.3480 os         1 41X      -0.294900
      4 C10          3.3550     0.0000     1.5270 ca         1 41X       0.119100
      5 C9           4.2000     0.0010     0.4290 ca         1 41X      -0.178000
      6 C8           5.5700     0.0000     0.6120 ca         1 41X      -0.099000
      7 C7           6.1000    -0.0000     1.8890 ca         1 41X      -0.100000
      8 C6           5.2610    -0.0010     2.9890 ca         1 41X      -0.178000
      9 C5           3.8870     0.0050     2.8120 ca         1 41X       0.113100
     10 O1           3.0620     0.0050     3.8930 os         1 41X      -0.275900
     11 C4           3.6750     0.1190     5.1780 c3         1 41X       0.224400
     12 C13          4.1130    -1.2430     5.6490 ca         1 41X      -0.131300
     13 C18          3.3610    -2.3590     5.3320 ca         1 41X      -0.075000
     14 C17          3.7620    -3.6090     5.7640 ca         1 41X      -0.106500
     15 C16          4.9170    -3.7440     6.5130 ca         1 41X      -0.095000
     16 C15          5.6690    -2.6290     6.8280 ca         1 41X      -0.106500
     17 C14          5.2700    -1.3790     6.3930 ca         1 41X      -0.075000
     18 C            2.6690     0.7030     6.1720 c3         1 41X       0.185100
     19 O            1.5860    -0.2140     6.3500 os         1 41X      -0.395600
     20 C3           0.5730     0.2590     7.2430 c3         1 41X       0.213400
     21 C2           0.0090     1.5790     6.7130 c3         1 41X       0.102800
     22 N            1.1040     2.5460     6.5530 n7         1 41X      -0.579200
     23 C1           2.1260     2.0290     5.6310 c3         1 41X       0.099800
     24 H1          -0.3610    -0.1540    -1.0100 hc         1 41X       0.010700
     25 H2          -0.3610     0.9510     0.3720 hc         1 41X       0.010700
     26 H3          -0.3610    -0.7980     0.6380 hc         1 41X       0.010700
     27 H4           1.8920    -0.8850    -0.5100 h1         1 41X      -0.001800
     28 H5           1.8920     0.8850    -0.5100 h1         1 41X      -0.001800
     29 H6           3.7870     0.0020    -0.5720 ha         1 41X       0.120000
     30 H7           6.2300     0.0010    -0.2470 ha         1 41X       0.102000
     31 H8           7.1750    -0.0030     2.0290 ha         1 41X       0.103000
     32 H9           5.6780     0.0010     3.9880 ha         1 41X       0.128000
     33 H10          4.5370     0.7730     5.1100 h1         1 41X       0.030700
     34 H11          2.4560    -2.2540     4.7460 ha         1 41X       0.113000
     35 H12          3.1720    -4.4830     5.5160 ha         1 41X       0.102000
     36 H13          5.2320    -4.7230     6.8530 ha         1 41X       0.100000
     37 H14          6.5750    -2.7350     7.4130 ha         1 41X       0.102000
     38 H15          5.8610    -0.5050     6.6400 ha         1 41X       0.113000
     39 H16          3.1550     0.8760     7.1250 h1         1 41X       0.027700
     40 H17          1.0030     0.4190     8.2240 h1         1 41X       0.012700
     41 H18         -0.2220    -0.4740     7.3060 h1         1 41X       0.012700
     42 H19         -0.4650     1.4090     5.7540 h1         1 41X       0.014700
     43 H20         -0.7160     1.9690     7.4170 h1         1 41X       0.014700
     44 H21          0.7400     3.4070     6.1970 hn         1 41X       0.254800
     45 H23          1.6820     1.8650     4.6560 h1         1 41X       0.025200
     46 H24          2.9350     2.7450     5.5510 h1         1 41X       0.025200
@<TRIPOS>BOND
     1     1     2 1   
     2     1    24 1   
     3     1    25 1   
     4     1    26 1   
     5     2     3 1   
     6     2    27 1   
     7     2    28 1   
     8     3     4 1   
     9     4     5 ar  
    10     4     9 ar  
    11     5     6 ar  
    12     5    29 1   
    13     6     7 ar  
    14     6    30 1   
    15     7     8 ar  
    16     7    31 1   
    17     8     9 ar  
    18     8    32 1   
    19     9    10 1   
    20    10    11 1   
    21    11    12 1   
    22    11    18 1   
    23    11    33 1   
    24    12    13 ar  
    25    12    17 ar  
    26    13    14 ar  
    27    13    34 1   
    28    14    15 ar  
    29    14    35 1   
    30    15    16 ar  
    31    15    36 1   
    32    16    17 ar  
    33    16    37 1   
    34    17    38 1   
    35    18    19 1   
    36    18    23 1   
    37    18    39 1   
    38    19    20 1   
    39    20    21 1   
    40    20    40 1   
    41    20    41 1   
    42    21    22 1   
    43    21    42 1   
    44    21    43 1   
    45    22    23 1   
    46    22    44 1   
    47    23    45 1   
    48    23    46 1   
@<TRIPOS>SUBSTRUCTURE
     1 41X         1 TEMP              0 ****  ****    0 ROOT
