@<TRIPOS>MOLECULE
molecule
   46    48     1     0     0
SMALL
bcc


@<TRIPOS>ATOM
      1 C10          0.0000     0.0000     0.0000 c3         1 41Z      -0.056300
      2 C13          4.2710     0.0000     0.0000 ca         1 41Z      -0.131500
      3 C15          4.3340    -0.0030    -2.5020 c3         1 41Z      -0.056300
      4 C17          0.7050     4.0610    -3.7860 ca         1 41Z      -0.015000
      5 C20         -0.6670     4.4910    -6.1870 ca         1 41Z      -0.251900
      6 C21         -1.3840     4.7430    -7.4500 c          1 41Z       0.533700
      7 C24         -0.4290     3.1650    -5.7480 ca         1 41Z       0.522600
      8 C03         -0.6240     0.8830    -6.0740 ca         1 41Z       0.509600
      9 C04          0.0590     0.5960    -4.9020 ca         1 41Z      -0.351300
     10 C05          0.5190     1.6340    -4.1050 ca         1 41Z       0.280600
     11 N06          1.2000     1.3810    -2.9260 nu         1 41Z      -0.752600
     12 C08          2.1980    -0.0000    -1.1970 ca         1 41Z      -0.136300
     13 C09          1.5070     0.0010     0.0000 ca         1 41Z      -0.059300
     14 C11          2.1980    -0.0050     1.1970 ca         1 41Z      -0.131500
     15 C12          3.5800     0.0000     1.1970 ca         1 41Z      -0.099000
     16 C14          3.5800    -0.0010    -1.1970 ca         1 41Z      -0.059300
     17 C16          0.2720     2.9600    -4.5350 ca         1 41Z      -0.201300
     18 C18          0.4540     5.3300    -4.2230 ca         1 41Z      -0.223000
     19 C19         -0.2260     5.5550    -5.4110 ca         1 41Z      -0.100000
     20 O22         -1.8660     3.8410    -8.0470 o          1 41Z      -0.365100
     21 N23         -1.5070     6.0970    -7.9560 nz         1 41Z      -0.716400
     22 N25         -0.8390     2.1190    -6.4670 nb         1 41Z      -0.770000
     23 H1          -0.3610    -0.0660     1.0190 hc         1 41Z       0.048200
     24 H2          -0.3610     0.9150    -0.4530 hc         1 41Z       0.048200
     25 H3          -0.3610    -0.8500    -0.5660 hc         1 41Z       0.048200
     26 H4           5.3530     0.0550    -0.0000 ha         1 41Z       0.140500
     27 H5           4.8750     0.9290    -2.6080 hc         1 41Z       0.048200
     28 H6           5.0330    -0.8300    -2.5140 hc         1 41Z       0.048200
     29 H7           3.6340    -0.1080    -3.3230 hc         1 41Z       0.048200
     30 H8           1.2410     4.3250    -2.8820 ha         1 41Z       0.167000
     31 H9          -2.2080    -0.4910    -6.5340 hc         1 41Z       0.066367
     32 H10         -0.8000    -0.6200    -7.5970 hc         1 41Z       0.066367
     33 H11         -1.9230     0.7350    -7.7770 hc         1 41Z       0.066367
     34 H12          0.3020    -0.4540    -5.0090 ha         1 41Z       0.171000
     35 H13          1.8090     2.0840    -2.5570 hn         1 41Z       0.443800
     36 H14          0.4980    -0.5150    -2.3850 h1         1 41Z       0.062200
     37 H15          2.0400    -0.5080    -3.2520 h1         1 41Z       0.062200
     38 H16          1.6560    -0.0000     2.1350 ha         1 41Z       0.140500
     39 H17          4.1220     0.0110     2.1350 ha         1 41Z       0.141000
     40 H18          0.7970     6.1790    -3.6440 ha         1 41Z       0.151000
     41 H19         -0.2490     6.6370    -5.3670 ha         1 41Z       0.153000
     42 H20         -2.0350     6.0880    -8.8070 hn         1 41Z       0.461800
     43 H21         -1.9750     6.6650    -7.2790 hn         1 41Z       0.461800
     44 H233        -0.5960     6.4710    -8.1340 hn         1 41Z       0.461800
     45 C07          1.4440    -0.0000    -2.5030 c3         1 41Z       0.262100
     46 C02         -1.4490     0.0680    -7.0680 c3         1 41Z      -0.138400
@<TRIPOS>BOND
     1    46     8 1
     2    20     6 2
     3    22     8 ar
     4    22     7 ar
     5     6    21 1
     6     6     5 1
     7     8     9 ar
     8     7     5 ar
     9     7    17 ar
    10     9    10 ar
    11     5    19 ar
    12    17    10 ar
    13    17     4 ar
    14    19    18 ar
    15    10    11 1
    16     4    18 ar
    17    45    11 1
    18    45    12 1
    19     1    13 1
    20    12    13 ar
    21    12    16 ar
    22    13    14 ar
    23     3    16 1
    24    16     2 ar
    25    14    15 ar
    26     2    15 ar
    27     1    23 1
    28     1    24 1
    29     1    25 1
    30     2    26 1
    31     3    27 1
    32     3    28 1
    33     3    29 1
    34     4    30 1
    35    46    31 1
    36    46    32 1
    37    46    33 1
    38     9    34 1
    39    11    35 1
    40    45    36 1
    41    45    37 1
    42    14    38 1
    43    15    39 1
    44    18    40 1
    45    19    41 1
    46    21    42 1
    47    21    43 1
    48    44    21 1
@<TRIPOS>SUBSTRUCTURE
     1 41Z         1 TEMP              0 ****  ****    0 ROOT
