@<TRIPOS>MOLECULE
41Z
   46    48     1     0     0
SMALL
bcc


@<TRIPOS>ATOM
      1 C10          0.0000     0.0000     0.0000 c3         1 41Z       0.050700
      2 C13          4.2710     0.0000     0.0000 ca         1 41Z      -0.103500
      3 C15          4.3340    -0.0030    -2.5020 c3         1 41Z       0.050700
      4 C17          0.7050     4.0610    -3.7860 ca         1 41Z       0.015000
      5 C20         -0.6670     4.4910    -6.1870 ca         1 41Z      -0.266900
      6 C21         -1.3840     4.7430    -7.4500 c          1 41Z       0.398700
      7 C24         -0.4290     3.1650    -5.7480 ca         1 41Z       0.499600
      8 C03         -0.6240     0.8830    -6.0740 ca         1 41Z       0.477600
      9 C04          0.0590     0.5960    -4.9020 ca         1 41Z      -0.331300
     10 C05          0.5190     1.6340    -4.1050 ca         1 41Z       0.140600
     11 N06          1.2000     1.3810    -2.9260 nu         1 41Z      -0.336600
     12 C08          2.1980    -0.0000    -1.1970 ca         1 41Z      -0.143300
     13 C09          1.5070     0.0010     0.0000 ca         1 41Z      -0.064300
     14 C11          2.1980    -0.0050     1.1970 ca         1 41Z      -0.103500
     15 C12          3.5800     0.0000     1.1970 ca         1 41Z      -0.068000
     16 C14          3.5800    -0.0010    -1.1970 ca         1 41Z      -0.064300
     17 C16          0.2720     2.9600    -4.5350 ca         1 41Z      -0.192300
     18 C18          0.4540     5.3300    -4.2230 ca         1 41Z      -0.205000
     19 C19         -0.2260     5.5550    -5.4110 ca         1 41Z      -0.084000
     20 O22         -1.8660     3.8410    -8.0470 o          1 41Z      -0.385100
     21 N23         -1.5070     6.0970    -7.9560 nz         1 41Z       0.124600
     22 N25         -0.8390     2.1190    -6.4670 nb         1 41Z      -0.693000
     23 H1          -0.3610    -0.0660     1.0190 hc         1 41Z       0.013200
     24 H2          -0.3610     0.9150    -0.4530 hc         1 41Z       0.013200
     25 H3          -0.3610    -0.8500    -0.5660 hc         1 41Z       0.013200
     26 H4           5.3530     0.0550    -0.0000 ha         1 41Z       0.114500
     27 H5           4.8750     0.9290    -2.6080 hc         1 41Z       0.013200
     28 H6           5.0330    -0.8300    -2.5140 hc         1 41Z       0.013200
     29 H7           3.6340    -0.1080    -3.3230 hc         1 41Z       0.013200
     30 H8           1.2410     4.3250    -2.8820 ha         1 41Z       0.135000
     31 H9          -2.2080    -0.4910    -6.5340 hc         1 41Z       0.025700
     32 H10         -0.8000    -0.6200    -7.5970 hc         1 41Z       0.025700
     33 H11         -1.9230     0.7350    -7.7770 hc         1 41Z       0.025700
     34 H12          0.3020    -0.4540    -5.0090 ha         1 41Z       0.151000
     35 H13          1.8090     2.0840    -2.5570 hn         1 41Z       0.295800
     36 H14          0.4980    -0.5150    -2.3850 h1         1 41Z       0.040200
     37 H15          2.0400    -0.5080    -3.2520 h1         1 41Z       0.040200
     38 H16          1.6560    -0.0000     2.1350 ha         1 41Z       0.114500
     39 H17          4.1220     0.0110     2.1350 ha         1 41Z       0.111000
     40 H18          0.7970     6.1790    -3.6440 ha         1 41Z       0.125000
     41 H19         -0.2490     6.6370    -5.3670 ha         1 41Z       0.127000
     42 H20         -2.0350     6.0880    -8.8070 hn         1 41Z       0.242133
     43 H21         -1.9750     6.6650    -7.2790 hn         1 41Z       0.242133
     44 H233        -0.5960     6.4710    -8.1340 hn         1 41Z       0.242133
     45 C07          1.4440    -0.0000    -2.5030 c3         1 41Z       0.189100
     46 C02         -1.4490     0.0680    -7.0680 c3         1 41Z      -0.042400
@<TRIPOS>BOND
     1     1    13 1   
     2     1    23 1   
     3     1    24 1   
     4     1    25 1   
     5     2    15 ar  
     6     2    16 ar  
     7     2    26 1   
     8     3    16 1   
     9     3    27 1   
    10     3    28 1   
    11     3    29 1   
    12     4    17 ar  
    13     4    18 ar  
    14     4    30 1   
    15     5     6 1   
    16     5     7 ar  
    17     5    19 ar  
    18     6    20 2   
    19     6    21 1   
    20     7    17 ar  
    21     7    22 ar  
    22     8     9 ar  
    23     8    22 ar  
    24     8    46 1   
    25     9    10 ar  
    26     9    34 1   
    27    10    11 1   
    28    10    17 ar  
    29    11    35 1   
    30    11    45 1   
    31    12    13 ar  
    32    12    16 ar  
    33    12    45 1   
    34    13    14 ar  
    35    14    15 ar  
    36    14    38 1   
    37    15    39 1   
    38    18    19 ar  
    39    18    40 1   
    40    19    41 1   
    41    21    42 1   
    42    21    43 1   
    43    21    44 1   
    44    31    46 1   
    45    32    46 1   
    46    33    46 1   
    47    36    45 1   
    48    37    45 1   
@<TRIPOS>SUBSTRUCTURE
     1 41Z         1 TEMP              0 ****  ****    0 ROOT
