@<TRIPOS>MOLECULE
420
   44    45     1     0     0
SMALL
bcc


@<TRIPOS>ATOM
      1 C1           0.0000     0.0000     0.0000 c3         1 420       0.248500
      2 C2           1.5080     0.0000     0.0000 c          1 420       0.554100
      3 O3           2.1130     0.0000     1.0500 o          1 420      -0.610100
      4 N4           2.1810    -0.0000    -1.1660 ns         1 420      -0.196900
      5 C5           3.6460    -0.0010    -1.1660 c3         1 420       0.040000
      6 C6           4.1570    -0.0010    -2.6080 c3         1 420       0.214800
      7 N7           5.6210    -0.0010    -2.6080 n7         1 420      -0.583100
      8 S8           6.4500    -0.3860    -3.9900 sy         1 420       1.048200
      9 O9           7.8310    -0.2600    -3.6780 o          1 420      -0.584300
     10 O10          5.8700    -1.5860    -4.4850 o          1 420      -0.584300
     11 C11          6.0930     0.8650    -5.1780 ca         1 420      -0.160500
     12 C12          5.4270     0.5510    -6.3240 ca         1 420       0.034000
     13 C13          5.1360     1.5280    -7.2740 ca         1 420      -0.154000
     14 C14          5.5090     2.8240    -7.0830 ca         1 420      -0.010000
     15 C15          6.1950     3.1840    -5.9150 ca         1 420      -0.052000
     16 C16          6.4880     2.1930    -4.9440 ca         1 420       0.052000
     17 C17          7.1710     2.5550    -3.7710 ca         1 420      -0.127000
     18 C18          7.5430     3.8490    -3.5710 ca         1 420      -0.062000
     19 C19          7.2560     4.8330    -4.5140 ca         1 420      -0.144000
     20 C20          6.5970     4.5180    -5.6830 ca         1 420       0.038600
     21 N21          6.3170     5.5100    -6.6200 nh         1 420      -0.411000
     22 C22          5.4830     6.5670    -6.0340 c3         1 420       0.180600
     23 C23          7.5540     6.0660    -7.1840 c3         1 420       0.180600
     24 I           -0.7210     0.0010     2.0380 i          1 420      -0.347900
     25 H11C        -0.3610     0.8840    -0.5110 h1         1 420       0.036200
     26 H12C        -0.3610    -0.8850    -0.5100 h1         1 420       0.036200
     27 H4           1.6810    -0.0030    -2.0330 hn         1 420       0.172500
     28 H51C         4.0080     0.8830    -0.6550 h1         1 420       0.032200
     29 H52C         4.0070    -0.8860    -0.6550 h1         1 420       0.032200
     30 H61C         3.7960     0.8830    -3.1190 h1         1 420       0.017200
     31 H62C         3.7960    -0.8860    -3.1190 h1         1 420       0.017200
     32 H7           6.1210     0.1920    -1.7630 hn         1 420       0.354800
     33 H12          5.1200    -0.4730    -6.4990 ha         1 420       0.126000
     34 H13          4.6060     1.2520    -8.1770 ha         1 420       0.110000
     35 H14          5.2760     3.5720    -7.8310 ha         1 420       0.123000
     36 H17          7.4030     1.8030    -3.0260 ha         1 420       0.132000
     37 H18          8.0620     4.1190    -2.6590 ha         1 420       0.104000
     38 H19          7.5630     5.8560    -4.3310 ha         1 420       0.112000
     39 H221         5.0350     7.1540    -6.8270 h1         1 420       0.005367
     40 H222         6.0970     7.2080    -5.4130 h1         1 420       0.005367
     41 H223         4.7030     6.1190    -5.4310 h1         1 420       0.005367
     42 H231         8.0010     6.7480    -6.4710 h1         1 420       0.005367
     43 H232         7.3250     6.5990    -8.0990 h1         1 420       0.005367
     44 H233         8.2470     5.2620    -7.3990 h1         1 420       0.005367
@<TRIPOS>BOND
     1     1     2 1   
     2     1    24 1   
     3     1    25 1   
     4     1    26 1   
     5     2     3 2   
     6     2     4 1   
     7     4     5 1   
     8     4    27 1   
     9     5     6 1   
    10     5    28 1   
    11     5    29 1   
    12     6     7 1   
    13     6    30 1   
    14     6    31 1   
    15     7     8 1   
    16     7    32 1   
    17     8     9 2   
    18     8    10 2   
    19     8    11 1   
    20    11    12 ar  
    21    11    16 ar  
    22    12    13 ar  
    23    12    33 1   
    24    13    14 ar  
    25    13    34 1   
    26    14    15 ar  
    27    14    35 1   
    28    15    16 ar  
    29    15    20 ar  
    30    16    17 ar  
    31    17    18 ar  
    32    17    36 1   
    33    18    19 ar  
    34    18    37 1   
    35    19    20 ar  
    36    19    38 1   
    37    20    21 1   
    38    21    22 1   
    39    21    23 1   
    40    22    39 1   
    41    22    40 1   
    42    22    41 1   
    43    23    42 1   
    44    23    43 1   
    45    23    44 1   
@<TRIPOS>SUBSTRUCTURE
     1 420         1 TEMP              0 ****  ****    0 ROOT
