@<TRIPOS>MOLECULE
421
   48    50     1     0     0
SMALL
bcc


@<TRIPOS>ATOM
      1 C1           0.0000     0.0000     0.0000 ca         1 421      -0.008000
      2 C2           1.4080     0.0000     0.0000 ca         1 421      -0.014000
      3 C3           2.0860     0.0000     1.1770 ca         1 421      -0.137000
      4 C4           1.4000     0.0010     2.4030 ca         1 421      -0.236900
      5 C5           0.0160     0.0020     2.4340 ca         1 421      -0.018000
      6 C6          -0.7020     0.0010     1.2320 ca         1 421      -0.053000
      7 C7          -2.1160     0.0010     1.2310 ca         1 421      -0.069400
      8 C8          -2.7950     0.0000     0.0460 ca         1 421      -0.078000
      9 C9          -2.1050    -0.0010    -1.1770 ca         1 421      -0.056600
     10 C10         -0.7190    -0.0060    -1.2050 ca         1 421      -0.077000
     11 C11          2.1640     0.0030     3.6710 ce         1 421       0.224800
     12 N12          3.5420     0.0030     3.6460 nz         1 421       0.189400
     13 N13          1.5330     0.0040     4.8110 n2         1 421      -0.512100
     14 N14         -2.8150     0.0010     2.4380 ns         1 421      -0.040100
     15 C15         -4.0970    -0.4130     2.4730 c          1 421       0.595700
     16 C16         -4.8720    -0.3100     3.7280 ca         1 421      -0.158600
     17 O17         -4.6160    -0.8720     1.4740 o          1 421      -0.601100
     18 C18         -4.3340     0.3540     4.8320 ca         1 421      -0.119000
     19 C19         -5.0610     0.4490     6.0010 ca         1 421      -0.080000
     20 C20         -6.3220    -0.1120     6.0840 ca         1 421      -0.136000
     21 C21         -6.8660    -0.7750     4.9910 ca         1 421       0.138100
     22 C22         -6.1480    -0.8700     3.8110 ca         1 421      -0.027300
     23 C23         -6.7360    -1.5880     2.6240 c3         1 421       0.045200
     24 O24         -8.1060    -1.3240     5.0780 oh         1 421      -0.475100
     25 C25         -2.8630    -0.0020    -2.4440 c          1 421       0.703700
     26 O26         -4.0770    -0.0030    -2.4260 o          1 421      -0.548000
     27 O27         -2.2070    -0.0030    -3.6210 os         1 421      -0.430900
     28 C28         -2.9520    -0.0040    -4.8680 c3         1 421       0.282700
     29 H2           1.9500    -0.0010    -0.9380 ha         1 421       0.125000
     30 H3           3.1690    -0.0000     1.1700 ha         1 421       0.083000
     31 H5          -0.5080     0.0020     3.3820 ha         1 421       0.105000
     32 H8          -3.8780     0.0040     0.0500 ha         1 421       0.200000
     33 H10         -0.1940    -0.0070    -2.1520 ha         1 421       0.136000
     34 H121         3.8930     0.0000     4.5830 hn         1 421       0.221800
     35 H122         3.8670    -0.8130     3.1660 hn         1 421       0.221800
     36 H13          0.5320     0.0040     4.8300 hn         1 421       0.376400
     37 H14         -2.3770     0.3430     3.2700 hn         1 421       0.173500
     38 H18         -3.3630     0.8290     4.7570 ha         1 421       0.086000
     39 H19         -4.6420     0.9650     6.8560 ha         1 421       0.107000
     40 H20         -6.8870    -0.0350     7.0040 ha         1 421       0.118000
     41 H231        -7.6890    -2.0230     2.9000 hc         1 421       0.030700
     42 H232        -6.8820    -0.8850     1.8130 hc         1 421       0.030700
     43 H233        -6.0600    -2.3720     2.3050 hc         1 421       0.030700
     44 H24         -8.6960    -0.7050     5.4750 ho         1 421       0.411000
     45 H281        -2.2610    -0.0540    -5.7010 h1         1 421       0.005700
     46 H282        -3.5390     0.9030    -4.9390 h1         1 421       0.005700
     47 H283        -3.6110    -0.8640    -4.8940 h1         1 421       0.005700
     48 H123         3.8670     0.8170     3.1630 hn         1 421       0.221800
@<TRIPOS>BOND
     1     1     2 ar  
     2     1     6 ar  
     3     1    10 ar  
     4     2     3 ar  
     5     2    29 1   
     6     3     4 ar  
     7     3    30 1   
     8     4     5 ar  
     9     4    11 1   
    10     5     6 ar  
    11     5    31 1   
    12     6     7 ar  
    13     7     8 ar  
    14     7    14 1   
    15     8     9 ar  
    16     8    32 1   
    17     9    10 ar  
    18     9    25 1   
    19    10    33 1   
    20    11    12 1   
    21    11    13 2   
    22    12    34 1   
    23    12    35 1   
    24    12    48 1   
    25    13    36 1   
    26    14    15 1   
    27    14    37 1   
    28    15    16 1   
    29    15    17 2   
    30    16    18 ar  
    31    16    22 ar  
    32    18    19 ar  
    33    18    38 1   
    34    19    20 ar  
    35    19    39 1   
    36    20    21 ar  
    37    20    40 1   
    38    21    22 ar  
    39    21    24 1   
    40    22    23 1   
    41    23    41 1   
    42    23    42 1   
    43    23    43 1   
    44    24    44 1   
    45    25    26 2   
    46    25    27 1   
    47    27    28 1   
    48    28    45 1   
    49    28    46 1   
    50    28    47 1   
@<TRIPOS>SUBSTRUCTURE
     1 421         1 TEMP              0 ****  ****    0 ROOT
