@<TRIPOS>MOLECULE
molecule
   48    50     1     0     0
SMALL
bcc


@<TRIPOS>ATOM
      1 C1           0.0000     0.0000     0.0000 ca         1 421      -0.007000
      2 C2           1.4080     0.0000     0.0000 ca         1 421      -0.061000
      3 C3           2.0860     0.0000     1.1770 ca         1 421      -0.162000
      4 C4           1.4000     0.0010     2.4030 ca         1 421      -0.209900
      5 C5           0.0160     0.0020     2.4340 ca         1 421       0.002000
      6 C6          -0.7020     0.0010     1.2320 ca         1 421      -0.072000
      7 C7          -2.1160     0.0010     1.2310 ca         1 421       0.084600
      8 C8          -2.7950     0.0000     0.0460 ca         1 421      -0.098000
      9 C9          -2.1050    -0.0010    -1.1770 ca         1 421      -0.051600
     10 C10         -0.7190    -0.0060    -1.2050 ca         1 421      -0.104000
     11 C11          2.1640     0.0030     3.6710 ce         1 421       0.551800
     12 N12          3.5420     0.0030     3.6460 nz         1 421      -0.800600
     13 N13          1.5330     0.0040     4.8110 n2         1 421      -0.706100
     14 N14         -2.8150     0.0010     2.4380 ns         1 421      -0.472100
     15 C15         -4.0970    -0.4130     2.4730 c          1 421       0.680700
     16 C16         -4.8720    -0.3100     3.7280 ca         1 421      -0.145600
     17 O17         -4.6160    -0.8720     1.4740 o          1 421      -0.569100
     18 C18         -4.3340     0.3540     4.8320 ca         1 421      -0.130000
     19 C19         -5.0610     0.4490     6.0010 ca         1 421      -0.114000
     20 C20         -6.3220    -0.1120     6.0840 ca         1 421      -0.156000
     21 C21         -6.8660    -0.7750     4.9910 ca         1 421       0.119100
     22 C22         -6.1480    -0.8700     3.8110 ca         1 421      -0.024300
     23 C23         -6.7360    -1.5880     2.6240 c3         1 421      -0.047800
     24 O24         -8.1060    -1.3240     5.0780 oh         1 421      -0.497100
     25 C25         -2.8630    -0.0020    -2.4440 c          1 421       0.641700
     26 O26         -4.0770    -0.0030    -2.4260 o          1 421      -0.511000
     27 O27         -2.2070    -0.0030    -3.6210 os         1 421      -0.443900
     28 C28         -2.9520    -0.0040    -4.8680 c3         1 421       0.148700
     29 H2           1.9500    -0.0010    -0.9380 ha         1 421       0.160000
     30 H3           3.1690    -0.0000     1.1700 ha         1 421       0.102000
     31 H5          -0.5080     0.0020     3.3820 ha         1 421       0.159000
     32 H8          -3.8780     0.0040     0.0500 ha         1 421       0.222000
     33 H10         -0.1940    -0.0070    -2.1520 ha         1 421       0.167000
     34 H121         3.8670    -0.8170     3.1720 hn         1 421       0.464800
     35 H122         3.8930     0.0080     4.5830 hn         1 421       0.464800
     36 H13          2.0470     0.0050     5.6690 hn         1 421       0.430400
     37 H14         -2.3760     0.3410     3.2700 hn         1 421       0.330500
     38 H18         -3.3680     0.8370     4.7540 ha         1 421       0.114000
     39 H19         -4.6410     0.9630     6.8570 ha         1 421       0.139000
     40 H20         -6.8870    -0.0360     7.0050 ha         1 421       0.146000
     41 H231        -6.8820    -0.8850     1.8130 hc         1 421       0.064033
     42 H232        -7.6890    -2.0230     2.9000 hc         1 421       0.064033
     43 H233        -6.0600    -2.3720     2.3050 hc         1 421       0.064033
     44 H24         -8.6950    -0.7080     5.4810 ho         1 421       0.429000
     45 H281        -2.2600    -0.0060    -5.7020 h1         1 421       0.056367
     46 H282        -3.5760    -0.8880    -4.9140 h1         1 421       0.056367
     47 H283        -3.5750     0.8810    -4.9180 h1         1 421       0.056367
     48 H123         3.8670     0.8220     3.1720 hn         1 421       0.464800
@<TRIPOS>BOND
     1     1     2 ar  
     2     1     6 ar  
     3     1    10 ar  
     4     2     3 ar  
     5     2    29 1   
     6     3     4 ar  
     7     3    30 1   
     8     4     5 ar  
     9     4    11 1   
    10     5     6 ar  
    11     5    31 1   
    12     6     7 ar  
    13     7     8 ar  
    14     7    14 1   
    15     8     9 ar  
    16     8    32 1   
    17     9    10 ar  
    18     9    25 1   
    19    10    33 1   
    20    11    12 1   
    21    11    13 2   
    22    12    34 1   
    23    12    35 1   
    24    13    36 1   
    25    14    15 1   
    26    14    37 1   
    27    15    16 1   
    28    15    17 2   
    29    16    18 ar  
    30    16    22 ar  
    31    18    19 ar  
    32    18    38 1   
    33    19    20 ar  
    34    19    39 1   
    35    20    21 ar  
    36    20    40 1   
    37    21    22 ar  
    38    21    24 1   
    39    22    23 1   
    40    23    41 1   
    41    23    42 1   
    42    23    43 1   
    43    24    44 1   
    44    25    26 2   
    45    25    27 1   
    46    27    28 1   
    47    28    45 1   
    48    28    46 1   
    49    28    47 1   
    50    48    12 1   
@<TRIPOS>SUBSTRUCTURE
     1 421         1 TEMP              0 ****  ****    0 ROOT
