@<TRIPOS>MOLECULE
molecule
   54    58     1     0     0
SMALL
bcc


@<TRIPOS>ATOM
      1 C1           0.0000     0.0000     0.0000 ca         1 422      -0.105300
      2 C2           1.3950     0.0000     0.0000 ca         1 422      -0.211000
      3 C3           2.0750     0.0000     1.2350 ca         1 422      -0.144800
      4 C4           1.3280     0.0000     2.4140 ca         1 422      -0.076200
      5 C5          -0.0710     0.0010     2.4210 ca         1 422      -0.152000
      6 C6          -0.7240     0.0000     1.1860 ca         1 422      -0.121000
      7 C11          3.4480     0.0000     1.6100 cc         1 422      -0.196200
      8 C12          3.5060     0.0010     2.9850 cd         1 422      -0.036700
      9 N13          2.2230     0.0010     3.4600 na         1 422      -0.169400
     10 C14          4.7200     0.0020     3.8160 cd         1 422       0.384200
     11 C15          4.8460     0.5740     5.1030 ca         1 422      -0.197900
     12 C16          6.1630     0.3190     5.4700 ca         1 422      -0.125200
     13 N17          6.7050    -0.3620     4.4140 na         1 422      -0.013100
     14 N18          5.8540    -0.5690     3.3950 nc         1 422      -0.400100
     15 C19          4.0080     1.2700     5.9890 ca         1 422      -0.095000
     16 C20          4.5320     1.6860     7.2200 ca         1 422      -0.125000
     17 C21          5.8590     1.4170     7.5630 ca         1 422       0.058000
     18 C22          6.7050     0.7250     6.6920 ca         1 422      -0.094000
     19 C23          6.3620     1.8560     8.8270 cg         1 422       0.218800
     20 C7          -0.7320    -0.0010    -1.3110 c3         1 422       0.188100
     21 N2          -0.1620     0.9590    -2.2570 n3         1 422      -0.684600
     22 C8          -0.8480     0.8730    -3.5530 c3         1 422       0.159800
     23 C9          -0.2270     2.3200    -1.7110 c3         1 422       0.159800
     24 C10          0.4140     3.3290    -2.6650 c3         1 422      -0.091900
     25 C13         -0.2280     1.8320    -4.5700 c3         1 422      -0.091900
     26 C17         -0.2340     3.2750    -4.0520 c3         1 422      -0.045700
     27 C18          0.4750     4.2100    -5.0270 c3         1 422      -0.028200
     28 N3           0.3960     5.5520    -4.5520 nz         1 422      -0.756600
     29 N1           6.7840     2.2230     9.8440 n1         1 422      -0.330800
     30 H2           2.1430    -0.7580     0.2010 ha         1 422       0.275000
     31 H5          -0.5060    -0.3500     3.3490 ha         1 422       0.140000
     32 H6          -1.7570     0.2160     1.4330 ha         1 422       0.143000
     33 H11          4.2540     0.3810     0.9940 ha         1 422       0.171000
     34 HN13         1.8370     0.0810     4.3800 hn         1 422       0.301700
     35 HN17         7.6440    -0.4940     4.7330 hn         1 422       0.344700
     36 H19          3.0360     0.8370     6.1920 ha         1 422       0.146000
     37 H20          3.8540     2.4100     7.6540 ha         1 422       0.160000
     38 H22          7.7530     0.8220     6.4330 ha         1 422       0.157000
     39 H71         -0.7460    -1.0840    -1.2980 h1         1 422       0.066200
     40 H72         -1.6300     0.3840    -0.8440 h1         1 422       0.066200
     41 H81         -1.9290     0.8400    -3.4830 h1         1 422       0.047700
     42 H82         -0.7390    -0.1320    -3.9410 h1         1 422       0.047700
     43 H91          0.0490     2.3000    -0.6630 h1         1 422       0.047700
     44 H92         -1.3020     2.4420    -1.7650 h1         1 422       0.047700
     45 H101         0.0350     4.1960    -2.1370 hc         1 422       0.057200
     46 H102         1.3700     3.3340    -2.1550 hc         1 422       0.057200
     47 H131        -1.0190     1.6710    -5.2930 hc         1 422       0.057200
     48 H132         0.7020     1.6310    -5.0880 hc         1 422       0.057200
     49 H17         -1.2640     3.5950    -3.9560 hc         1 422       0.061700
     50 H181         0.0070     4.0410    -5.9890 hx         1 422       0.136700
     51 H182         1.2570     3.5370    -5.3580 hx         1 422       0.136700
     52 HN31         1.3270     5.9050    -4.6590 hn         1 422       0.466467
     53 HN32        -0.0950     5.6280    -3.6840 hn         1 422       0.466467
     54 H33          0.0310     6.0330    -5.3510 hn         1 422       0.466467
@<TRIPOS>BOND
     1     1     6 ar  
     2     1    20 1   
     3     1     2 ar  
     4     2     3 ar  
     5     2    30 1   
     6     3     4 ar  
     7     3     7 1   
     8     4     5 ar  
     9     4     9 1   
    10     5     6 ar  
    11     5    31 1   
    12     6    32 1   
    13     7     8 2   
    14     7    33 1   
    15     8     9 1   
    16     8    10 1   
    17     9    34 1   
    18    10    14 2   
    19    10    11 1   
    20    11    12 ar  
    21    11    15 ar  
    22    12    13 1   
    23    12    18 ar  
    24    13    14 1   
    25    13    35 1   
    26    15    16 ar  
    27    15    36 1   
    28    16    17 ar  
    29    16    37 1   
    30    17    18 ar  
    31    17    19 1   
    32    18    38 1   
    33    19    29 3   
    34    20    21 1   
    35    20    39 1   
    36    20    40 1   
    37    21    22 1   
    38    21    23 1   
    39    22    25 1   
    40    22    41 1   
    41    22    42 1   
    42    23    24 1   
    43    23    43 1   
    44    23    44 1   
    45    24    26 1   
    46    24    45 1   
    47    24    46 1   
    48    25    26 1   
    49    25    47 1   
    50    25    48 1   
    51    26    27 1   
    52    26    49 1   
    53    27    28 1   
    54    27    50 1   
    55    27    51 1   
    56    28    52 1   
    57    28    53 1   
    58    54    28 1   
@<TRIPOS>SUBSTRUCTURE
     1 422         1 TEMP              0 ****  ****    0 ROOT
