@<TRIPOS>MOLECULE
422
   54    59     1     0     0
SMALL
bcc


@<TRIPOS>ATOM
      1 C1           0.0000     0.0000     0.0000 c2         1 422      -0.084000
      2 C2           1.3950     0.0000     0.0000 c2         1 422      -0.210000
      3 C3           2.0750     0.0000     1.2350 c3         1 422      -0.134000
      4 C4           1.3280     0.0000     2.4140 c2         1 422      -0.227000
      5 C5          -0.0710     0.0010     2.4210 c2         1 422      -0.102000
      6 C6          -0.7240     0.0000     1.1860 c2         1 422      -0.104000
      7 C11          3.4480     0.0000     1.6100 c2         1 422      -0.170000
      8 C12          3.5060     0.0010     2.9850 c2         1 422      -0.117000
      9 N13          2.2230     0.0010     3.4600 n7         1 422       0.353000
     10 C14          4.7200     0.0020     3.8160 c2         1 422      -0.046000
     11 C15          4.8460     0.5740     5.1030 ca         1 422      -0.125000
     12 C16          6.1630     0.3190     5.4700 ca         1 422      -0.256000
     13 N17          6.7050    -0.3620     4.4140 na         1 422       0.312000
     14 N18          5.8540    -0.5690     3.3950 n2         1 422      -0.096000
     15 C19          4.0080     1.2700     5.9890 ca         1 422      -0.068000
     16 C20          4.5320     1.6860     7.2200 ca         1 422      -0.102000
     17 C21          5.8590     1.4170     7.5630 ca         1 422       0.105000
     18 C22          6.7050     0.7250     6.6920 ca         1 422      -0.050000
     19 C23          6.3620     1.8560     8.8270 c1         1 422      -0.119000
     20 C7          -0.7320    -0.0010    -1.3110 c3         1 422      -0.076000
     21 N2          -0.1620     0.9590    -2.2570 n3         1 422       0.002000
     22 C8          -0.8480     0.8730    -3.5530 c3         1 422      -0.097500
     23 C9          -0.2270     2.3200    -1.7110 c3         1 422      -0.097500
     24 C10          0.4140     3.3290    -2.6650 c3         1 422      -0.122500
     25 C13         -0.2280     1.8320    -4.5700 c3         1 422      -0.122500
     26 C17         -0.2340     3.2750    -4.0520 c3         1 422      -0.038000
     27 C18          0.4750     4.2100    -5.0270 c3         1 422      -0.438000
     28 N3           0.3960     5.5520    -4.5520 nz         1 422       0.941000
     29 N1           6.7840     2.2230     9.8440 n1         1 422      -0.027000
     30 H2           2.1430    -0.7580     0.2010 DU         1 422       0.256000
     31 H5          -0.5060    -0.3500     3.3490 ha         1 422       0.114000
     32 H6          -1.7570     0.2160     1.4330 ha         1 422       0.117000
     33 H11          4.2540     0.3810     0.9940 ha         1 422       0.145000
     34 HN13         1.8370     0.0810     4.3800 hn         1 422       0.073000
     35 HN17         7.6440    -0.4940     4.7330 hn         1 422       0.110000
     36 H19          3.0360     0.8370     6.1920 ha         1 422       0.117000
     37 H20          3.8540     2.4100     7.6540 ha         1 422       0.129000
     38 H22          7.7530     0.8220     6.4330 ha         1 422       0.128000
     39 H71         -0.7460    -1.0840    -1.2980 h1         1 422       0.081500
     40 H72         -1.6300     0.3840    -0.8440 h1         1 422       0.081500
     41 H81         -1.9290     0.8400    -3.4830 h1         1 422       0.061000
     42 H82         -0.7390    -0.1320    -3.9410 h1         1 422       0.061000
     43 H91          0.0490     2.3000    -0.6630 h1         1 422       0.061000
     44 H92         -1.3020     2.4420    -1.7650 h1         1 422       0.061000
     45 H101         0.0350     4.1960    -2.1370 hc         1 422       0.069000
     46 H102         1.3700     3.3340    -2.1550 hc         1 422       0.069000
     47 H131        -1.0190     1.6710    -5.2930 hc         1 422       0.069000
     48 H132         0.7020     1.6310    -5.0880 hc         1 422       0.069000
     49 H17         -1.2640     3.5950    -3.9560 hc         1 422       0.073000
     50 H181         0.0070     4.0410    -5.9890 hx         1 422       0.162000
     51 H182         1.2570     3.5370    -5.3580 hx         1 422       0.162000
     52 HN31         1.3270     5.9050    -4.6590 hn         1 422       0.016333
     53 HN32        -0.0950     5.6280    -3.6840 hn         1 422       0.016333
     54 H33          0.0310     6.0330    -5.3510 hn         1 422       0.016333
@<TRIPOS>BOND
     1     1     2 1   
     2     1     6 1   
     3     1    20 1   
     4     2     3 1   
     5     2    30 1   
     6     3     4 1   
     7     3     7 1   
     8     3    30 1   
     9     4     5 1   
    10     4     9 1   
    11     5     6 1   
    12     5    31 1   
    13     6    32 1   
    14     7     8 1   
    15     7    33 1   
    16     8     9 1   
    17     8    10 1   
    18     9    34 1   
    19    10    11 1   
    20    10    14 1   
    21    11    12 1   
    22    11    15 1   
    23    12    13 1   
    24    12    18 1   
    25    13    14 1   
    26    13    35 1   
    27    15    16 1   
    28    15    36 1   
    29    16    17 1   
    30    16    37 1   
    31    17    18 1   
    32    17    19 1   
    33    18    38 1   
    34    19    29 1   
    35    20    21 1   
    36    20    39 1   
    37    20    40 1   
    38    21    22 1   
    39    21    23 1   
    40    22    25 1   
    41    22    41 1   
    42    22    42 1   
    43    23    24 1   
    44    23    43 1   
    45    23    44 1   
    46    24    26 1   
    47    24    45 1   
    48    24    46 1   
    49    25    26 1   
    50    25    47 1   
    51    25    48 1   
    52    26    27 1   
    53    26    49 1   
    54    27    28 1   
    55    27    50 1   
    56    27    51 1   
    57    28    52 1   
    58    28    53 1   
    59    28    54 1   
@<TRIPOS>SUBSTRUCTURE
     1 422         1 TEMP              0 ****  ****    0 ROOT
