@<TRIPOS>MOLECULE
molecule
   52    55     1     0     0
SMALL
bcc


@<TRIPOS>ATOM
      1 N18          0.0000     0.0000     0.0000 n2         1 426      -0.730100
      2 C17          1.3020     0.0000     0.0000 ce         1 426       0.523800
      3 N19          1.9900     0.0000     1.1940 nz         1 426      -0.741600
      4 C4           2.0430     0.0040    -1.2830 ca         1 426      -0.234900
      5 C5           1.3450     0.0010    -2.4770 ca         1 426      -0.044000
      6 C6           2.0510     0.0090    -3.6890 ca         1 426      -0.029000
      7 C10          1.3710     0.0120    -4.9220 ca         1 426      -0.113000
      8 C11          2.0710     0.0140    -6.0840 ca         1 426      -0.087000
      9 C12          3.4770     0.0160    -6.0780 ca         1 426      -0.108600
     10 C13          4.1750     0.0140    -4.8820 ca         1 426      -0.053000
     11 C1           3.4690     0.0110    -3.6700 ca         1 426      -0.024000
     12 C2           4.1480     0.0090    -2.4380 ca         1 426      -0.053000
     13 C3           3.4470     0.0060    -1.2760 ca         1 426      -0.158000
     14 C20          4.2150     0.0190    -7.3580 c          1 426       0.662700
     15 O23          5.4310     0.0210    -7.3580 o          1 426      -0.570100
     16 N21          3.5410     0.0190    -8.5250 ns         1 426      -0.460100
     17 C22          4.2330     0.1520    -9.7320 ca         1 426       0.052600
     18 C28          3.6980    -0.3700   -10.9030 ca         1 426      -0.170000
     19 C27          4.3810    -0.2400   -12.0960 ca         1 426      -0.094000
     20 C26          5.6010     0.4100   -12.1280 ca         1 426      -0.154000
     21 C25          6.1420     0.9330   -10.9620 ca         1 426       0.121100
     22 O33          7.3400     1.5710   -10.9960 os         1 426      -0.315900
     23 C34          7.0630     2.9660   -11.1260 c3         1 426       0.128100
     24 C38          8.1070     3.7870   -10.3490 c3         1 426      -0.095900
     25 C37          8.8200     4.6830   -11.3820 c3         1 426      -0.082900
     26 C36          7.8020     4.8090   -12.5430 c3         1 426      -0.082900
     27 C35          7.1780     3.3930   -12.6040 c3         1 426      -0.095900
     28 C24          5.4550     0.8090    -9.7640 ca         1 426      -0.160000
     29 H18         -0.5030     0.0010    -0.8650 hn         1 426       0.481400
     30 H191         2.5670    -0.8160     1.2470 hn         1 426       0.474133
     31 H192         2.5630     0.8190     1.2500 hn         1 426       0.474133
     32 H5           0.2710    -0.1380    -2.4770 ha         1 426       0.141000
     33 H10          0.2880     0.0100    -4.9420 ha         1 426       0.149000
     34 H11          1.5400     0.0150    -7.0290 ha         1 426       0.146000
     35 H13          5.2580     0.0160    -4.8830 ha         1 426       0.180000
     36 H2           5.2310     0.0110    -2.4170 ha         1 426       0.163000
     37 H3           3.9770     0.0050    -0.3310 ha         1 426       0.108000
     38 H21          2.5470    -0.0930    -8.5290 hn         1 426       0.324500
     39 H28          2.7420    -0.8800   -10.8800 ha         1 426       0.129000
     40 H27          3.9610    -0.6480   -13.0070 ha         1 426       0.141000
     41 H26          6.1350     0.5110   -13.0650 ha         1 426       0.149000
     42 H34          6.0690     3.1880   -10.7550 h1         1 426       0.046700
     43 H381         8.8220     3.1230    -9.8780 hc         1 426       0.054950
     44 H382         7.6150     4.4000    -9.6040 hc         1 426       0.054950
     45 H371         9.0290     5.6570   -10.9560 hc         1 426       0.049450
     46 H372         9.7310     4.2090   -11.7280 hc         1 426       0.049450
     47 H361         8.3090     5.0430   -13.4720 hc         1 426       0.049450
     48 H362         7.0470     5.5500   -12.3110 hc         1 426       0.049450
     49 H351         7.8290     2.7160   -13.1430 hc         1 426       0.054950
     50 H352         6.1970     3.4330   -13.0630 hc         1 426       0.054950
     51 H24          5.8760     1.2170    -8.8530 ha         1 426       0.172000
     52 H193         1.3390    -0.0090     1.9540 hn         1 426       0.474133
@<TRIPOS>BOND
     1     1     2 2   
     2     1    29 1   
     3     2     3 1   
     4     2     4 1   
     5     3    30 1   
     6     3    31 1   
     7     4     5 ar  
     8     4    13 ar  
     9     5     6 ar  
    10     5    32 1   
    11     6     7 ar  
    12     6    11 ar  
    13     7     8 ar  
    14     7    33 1   
    15     8     9 ar  
    16     8    34 1   
    17     9    10 ar  
    18     9    14 1   
    19    10    11 ar  
    20    10    35 1   
    21    11    12 ar  
    22    12    13 ar  
    23    12    36 1   
    24    13    37 1   
    25    14    15 2   
    26    14    16 1   
    27    16    17 1   
    28    16    38 1   
    29    17    18 ar  
    30    17    28 ar  
    31    18    19 ar  
    32    18    39 1   
    33    19    20 ar  
    34    19    40 1   
    35    20    21 ar  
    36    20    41 1   
    37    21    22 1   
    38    21    28 ar  
    39    22    23 1   
    40    23    24 1   
    41    23    27 1   
    42    23    42 1   
    43    24    25 1   
    44    24    43 1   
    45    24    44 1   
    46    25    26 1   
    47    25    45 1   
    48    25    46 1   
    49    26    27 1   
    50    26    47 1   
    51    26    48 1   
    52    27    49 1   
    53    27    50 1   
    54    28    51 1   
    55    52     3 1   
@<TRIPOS>SUBSTRUCTURE
     1 426         1 TEMP              0 ****  ****    0 ROOT
