@<TRIPOS>MOLECULE
molecule
   24    25     1     0     0
SMALL
bcc


@<TRIPOS>ATOM
      1 CAA          0.0000     0.0000     0.0000 cc         1 428      -0.101300
      2 NAB          1.3700     0.0000     0.0000 na         1 428       0.208200
      3 NAC         -0.4120     0.0010     1.2610 nd         1 428      -0.283600
      4 CAD         -0.6880    -0.0050    -1.2290 cd         1 428      -0.006000
      5 CAE          1.7710     0.0000     1.3020 cc         1 428      -0.170100
      6 NAF          2.0710    -0.0010    -1.2100 nd         1 428      -0.541800
      7 CAG          0.6510     0.0010     2.0660 cd         1 428       0.061400
      8 CAH          0.0220    -0.0050    -2.3880 cc         1 428      -0.283300
      9 CAI          1.4280    -0.0020    -2.3530 cc         1 428       0.628600
     10 CAJ          0.6150     0.0020     3.5720 c3         1 428       0.009500
     11 OAK          2.1280    -0.0020    -3.5160 oh         1 428      -0.605300
     12 CAL          0.7270    -1.4350     4.0850 c3         1 428      -0.088100
     13 CAM          1.7830     0.8290     4.1110 c3         1 428      -0.088100
     14 HAD         -1.7710    -0.0070    -1.2510 ha         1 428       0.167000
     15 HAE          2.7930    -0.0000     1.6600 h4         1 428       0.190000
     16 HOAK         2.6210     0.7980    -3.5870 ho         1 428       0.441000
     17 HAH         -0.4950    -0.0060    -3.3400 ha         1 428       0.160000
     18 HAJ         -0.3200     0.4340     3.9100 hc         1 428       0.072700
     19 H1AL         1.6370    -1.8830     3.7060 hc         1 428       0.038200
     20 H2AL        -0.1270    -2.0080     3.7450 hc         1 428       0.038200
     21 H3AL         0.7510    -1.4310     5.1680 hc         1 428       0.038200
     22 H1AM         1.8330     1.7720     3.5800 hc         1 428       0.038200
     23 H2AM         1.6360     1.0170     5.1670 hc         1 428       0.038200
     24 H3AM         2.7080     0.2840     3.9670 hc         1 428       0.038200
@<TRIPOS>BOND
     1     8     4 2
     2     8     9 1
     3     4     1 1
     4    11     9 1
     5     9     6 2
     6     1     3 2
     7     1     2 1
     8     3     7 1
     9    13    10 1
    10     6     2 1
    11     2     5 1
    12     7     5 2
    13     7    10 1
    14    10    12 1
    15     4    14 1
    16     5    15 1
    17    11    16 1
    18     8    17 1
    19    10    18 1
    20    12    19 1
    21    12    20 1
    22    12    21 1
    23    13    22 1
    24    13    23 1
    25    13    24 1
@<TRIPOS>SUBSTRUCTURE
     1 428         1 TEMP              0 ****  ****    0 ROOT
