@<TRIPOS>MOLECULE
428
   24    25     1     0     0
SMALL
bcc


@<TRIPOS>ATOM
      1 CAA        -0.0160   -0.0920    0.0010 cc        1 428     -0.101300
      2 NAB         1.4040    0.1970   -0.0720 na        1 428      0.190200
      3 NAC        -0.4200   -0.1700    1.2980 nd        1 428     -0.252600
      4 CAD        -0.7320   -0.2410   -1.2350 cc        1 428     -0.021000
      5 CAE         1.8520    0.2910    1.2460 cc        1 428     -0.165100
      6 NAF         2.0870    0.3340   -1.2030 nc        1 428     -0.563800
      7 CAG         0.7150    0.0620    2.0670 cd        1 428      0.047400
      8 CAH        -0.0450   -0.1030   -2.4050 cd        1 428     -0.242300
      9 CAI         1.3760    0.1860   -2.3360 cd        1 428      0.599600
     10 CAJ         0.7040    0.0680    3.5560 c3        1 428      0.009500
     11 OAK         1.9950    0.3100   -3.5540 oh        1 428     -0.600300
     12 CAL         0.4030   -1.3180    4.0950 c3        1 428     -0.091100
     13 CAM         2.0170    0.5800    4.1140 c3        1 428     -0.091100
     14 HAD        -1.8090   -0.4600   -1.1930 ha        1 428      0.172000
     15 HAE         2.8880    0.5040    1.5040 h4        1 428      0.195000
     16 HOAK        2.9390    0.5020   -3.4280 ho        1 428      0.444000
     17 HAH        -0.5090   -0.2000   -3.3950 ha        1 428      0.171000
     18 HAJ        -0.1190    0.7650    3.8940 hc        1 428      0.067700
     19 H1AL        0.3820   -1.2930    5.2120 hc        1 428      0.038700
     20 H2AL       -0.5880   -1.6740    3.7250 hc        1 428      0.038700
     21 H3AL        1.1860   -2.0450    3.7710 hc        1 428      0.038700
     22 H1AM        2.8560   -0.1070    3.8470 hc        1 428      0.038700
     23 H2AM        2.2460    1.5950    3.7110 hc        1 428      0.038700
     24 H3AM        1.9550    0.6430    5.2270 hc        1 428      0.038700
@<TRIPOS>BOND
     1    1    2 1   
     2    1    3 2   
     3    1    4 1   
     4    2    5 1   
     5    2    6 1   
     6    3    7 1   
     7    4    8 2   
     8    4   14 1   
     9    5    7 2   
    10    5   15 1   
    11    6    9 2   
    12    7   10 1   
    13    8    9 1   
    14    8   17 1   
    15    9   11 1   
    16   10   12 1   
    17   10   13 1   
    18   10   18 1   
    19   11   16 1   
    20   12   19 1   
    21   12   20 1   
    22   12   21 1   
    23   13   22 1   
    24   13   23 1   
    25   13   24 1   
@<TRIPOS>SUBSTRUCTURE
     1 428         1 TEMP              0 ****  ****    0 ROOT
