@<TRIPOS>MOLECULE
molecule
   66    67     1     0     0
SMALL
bcc


@<TRIPOS>ATOM
      1 C1           0.0000     0.0000     0.0000 ca         1 429       0.055100
      2 C2           1.3920     0.0000     0.0000 ca         1 429       0.134100
      3 C3           2.0810     0.0000     1.2020 ca         1 429      -0.224000
      4 C4           1.3860     0.0010     2.3970 ca         1 429      -0.089000
      5 C5           0.0030     0.0010     2.3970 ca         1 429      -0.144300
      6 C6          -0.6900    -0.0050     1.2010 ca         1 429      -0.140000
      7 O5           2.0730    -0.0010    -1.1760 os         1 429      -0.237900
      8 C9          -1.0030     1.4440     4.1440 c3         1 429       0.059700
      9 N1           0.2750     2.0990     4.4340 ns         1 429      -0.570900
     10 C10          1.0850     1.6040     5.3900 c          1 429       0.666100
     11 C11         -1.8590     1.4470     5.3840 c          1 429       0.640100
     12 N2          -3.1920     1.2790     5.2820 ns         1 429      -0.597900
     13 C12         -4.0260     1.2810     6.4870 c3         1 429       0.117000
     14 C13         -5.4900     1.0720     6.0950 c3         1 429      -0.101400
     15 C14         -7.8250     0.8670     6.9610 c3         1 429       0.113400
     16 C15         -6.3600     1.0740     7.3540 c3         1 429      -0.082400
     17 O1          -8.6370     0.8690     8.1370 os         1 429      -0.283900
     18 O4           0.7560     0.6150     6.0120 o          1 429      -0.591100
     19 C23          2.4000     2.2770     5.6880 c3         1 429      -0.167100
     20 C8           3.4640    -0.0010    -0.8480 c3         1 429      -0.010600
     21 O8          -1.3500     1.5990     6.4740 o          1 429      -0.574100
     22 C7          -0.7480     0.0010     3.7030 c3         1 429      -0.039100
     23 C24          4.2790    -0.0020    -2.1160 c          1 429       0.892600
     24 O6           5.6200    -0.0030    -2.0510 o          1 429      -0.826300
     25 O7           3.7260    -0.0020    -3.1900 o          1 429      -0.826300
     26 C32         -9.9170     0.6810     7.7300 ca         1 429       0.188100
     27 C33        -10.2030     0.5330     6.3810 ca         1 429      -0.254000
     28 C34        -11.5060     0.3420     5.9630 ca         1 429      -0.042000
     29 C35        -12.5390     0.2900     6.8820 ca         1 429      -0.244000
     30 C36        -12.2750     0.4300     8.2340 ca         1 429       0.195100
     31 C37        -10.9550     0.6250     8.6710 ca         1 429      -0.166600
     32 C38        -10.6630     0.7740    10.1050 c          1 429       0.679700
     33 O11        -10.4170    -0.2060    10.7800 o          1 429      -0.537000
     34 O12        -10.6700     1.9980    10.6700 os         1 429      -0.428900
     35 C39        -10.3820     2.1450    12.0850 c3         1 429       0.147700
     36 O13        -13.2890     0.3790     9.1340 oh         1 429      -0.498100
     37 O2          -0.6810    -0.0010    -1.1770 oh         1 429      -0.500100
     38 H3           3.1640    -0.0000     1.2060 ha         1 429       0.165000
     39 H4           1.9270     0.0030     3.3350 ha         1 429       0.127000
     40 H6          -1.7740    -0.0050     1.2030 ha         1 429       0.119000
     41 H9          -1.5120     1.9800     3.3520 h1         1 429       0.061700
     42 HN1          0.5220     2.9450     3.9590 hn         1 429       0.317500
     43 HN2         -3.6160     1.1750     4.3810 hn         1 429       0.309500
     44 H121        -3.9210     2.2300     6.9980 h1         1 429       0.055200
     45 H122        -3.7110     0.4800     7.1460 h1         1 429       0.055200
     46 H131        -5.8050     1.8720     5.4360 hc         1 429       0.045700
     47 H132        -5.5960     0.1220     5.5850 hc         1 429       0.045700
     48 H141        -7.9310    -0.0830     6.4510 h1         1 429       0.045200
     49 H142        -8.1390     1.6680     6.3030 h1         1 429       0.045200
     50 H151        -6.0460     0.2740     8.0120 hc         1 429       0.062700
     51 H152        -6.2540     2.0240     7.8640 hc         1 429       0.062700
     52 H231         2.2690     2.9820     6.5000 hc         1 429       0.058367
     53 H232         3.1320     1.5300     5.9720 hc         1 429       0.058367
     54 H233         2.7450     2.8020     4.8060 hc         1 429       0.058367
     55 H81          3.6980    -0.8850    -0.2680 h1         1 429       0.032700
     56 H82          3.6980     0.8840    -0.2690 h1         1 429       0.032700
     57 H71         -1.6950    -0.5100     3.5750 hc         1 429       0.069200
     58 H72         -0.1620    -0.5090     4.4570 hc         1 429       0.069200
     59 H33         -9.4030     0.5720     5.6520 ha         1 429       0.151000
     60 H34        -11.7210     0.2300     4.9070 ha         1 429       0.136000
     61 H35        -13.5570     0.1400     6.5430 ha         1 429       0.138000
     62 H391       -10.4090     3.1950    12.3520 h1         1 429       0.046033
     63 H392        -9.3980     1.7440    12.2980 h1         1 429       0.046033
     64 H393       -11.1240     1.6070    12.6630 h1         1 429       0.046033
     65 H13        -13.8920    -0.3020     8.8900 ho         1 429       0.429000
     66 HO2         -1.0330     0.8590    -1.3380 ho         1 429       0.403000
@<TRIPOS>BOND
     1     1     2 ar  
     2     1     6 ar  
     3     1    37 1   
     4     2     3 ar  
     5     2     7 1   
     6     3     4 ar  
     7     3    38 1   
     8     4     5 ar  
     9     4    39 1   
    10     5     6 ar  
    11     5    22 1   
    12     6    40 1   
    13     7    20 1   
    14     8     9 1   
    15     8    11 1   
    16     8    22 1   
    17     8    41 1   
    18     9    10 1   
    19     9    42 1   
    20    10    18 2   
    21    10    19 1   
    22    11    12 1   
    23    11    21 2   
    24    12    13 1   
    25    12    43 1   
    26    13    14 1   
    27    13    44 1   
    28    13    45 1   
    29    14    16 1   
    30    14    46 1   
    31    14    47 1   
    32    15    16 1   
    33    15    17 1   
    34    15    48 1   
    35    15    49 1   
    36    16    50 1   
    37    16    51 1   
    38    17    26 1   
    39    19    52 1   
    40    19    53 1   
    41    19    54 1   
    42    20    23 1   
    43    20    55 1   
    44    20    56 1   
    45    22    57 1   
    46    22    58 1   
    47    23    24 1   
    48    23    25 1   
    49    26    27 ar  
    50    26    31 ar  
    51    27    28 ar  
    52    27    59 1   
    53    28    29 ar  
    54    28    60 1   
    55    29    30 ar  
    56    29    61 1   
    57    30    31 ar  
    58    30    36 1   
    59    31    32 1   
    60    32    33 2   
    61    32    34 1   
    62    34    35 1   
    63    35    62 1   
    64    35    63 1   
    65    35    64 1   
    66    36    65 1   
    67    37    66 1   
@<TRIPOS>SUBSTRUCTURE
     1 429         1 TEMP              0 ****  ****    0 ROOT
