@<TRIPOS>MOLECULE
42A
   16    17     1     0     0
SMALL
bcc


@<TRIPOS>ATOM
      1 NAA         -1.5370    -0.0220     2.0560 n1         1 42A      -0.402800
      2 CAB         -0.8590    -0.0010     1.1450 cg         1 42A       0.237500
      3 CAI          0.0000     0.0000     0.0000 cc         1 42A      -0.006900
      4 CAJ          1.4730     0.0000     0.0000 ca         1 42A      -0.194100
      5 CAE          2.4450     0.0000     0.9990 ca         1 42A      -0.012000
      6 CAC          3.7740     0.0000     0.6120 ca         1 42A      -0.238300
      7 CAD          4.0890     0.0020    -0.7370 ca         1 42A       0.420200
      8 NAG          3.1530     0.0030    -1.6620 nb         1 42A      -0.573000
      9 CAK          1.8630     0.0020    -1.3500 ca         1 42A       0.225800
     10 NAH          0.7150     0.0030    -2.1080 na         1 42A       0.283900
     11 CAF         -0.3840    -0.0030    -1.3090 cd         1 42A      -0.225100
     12 H1           2.1520     0.0000     2.0410 ha         1 42A       0.115000
     13 H2           4.5560     0.0000     1.3620 ha         1 42A       0.117000
     14 H3           5.1260     0.0020    -1.0510 h4         1 42A      -0.018900
     15 H4           0.6700     0.0040    -3.1080 hn         1 42A       0.122700
     16 H5          -1.4040    -0.0060    -1.6730 h4         1 42A       0.150000
@<TRIPOS>BOND
     1     1     2 3   
     2     2     3 1   
     3     3     4 1   
     4     3    11 2   
     5     4     5 ar  
     6     4     9 ar  
     7     5     6 ar  
     8     5    12 1   
     9     6     7 ar  
    10     6    13 1   
    11     7     8 ar  
    12     7    14 1   
    13     8     9 ar  
    14     9    10 1   
    15    10    11 1   
    16    10    15 1   
    17    11    16 1   
@<TRIPOS>SUBSTRUCTURE
     1 42A         1 TEMP              0 ****  ****    0 ROOT
