@<TRIPOS>MOLECULE
molecule
   16    17     1     0     0
SMALL
bcc


@<TRIPOS>ATOM
      1 NAA         -1.5370    -0.0220     2.0560 n1         1 42A      -0.375800
      2 CAB         -0.8590    -0.0010     1.1450 cg         1 42A       0.236500
      3 CAI          0.0000     0.0000     0.0000 cc         1 42A      -0.061900
      4 CAJ          1.4730     0.0000     0.0000 ca         1 42A      -0.193100
      5 CAE          2.4450     0.0000     0.9990 ca         1 42A      -0.045000
      6 CAC          3.7740     0.0000     0.6120 ca         1 42A      -0.274300
      7 CAD          4.0890     0.0020    -0.7370 ca         1 42A       0.452200
      8 NAG          3.1530     0.0030    -1.6620 nb         1 42A      -0.709000
      9 CAK          1.8630     0.0020    -1.3500 ca         1 42A       0.465800
     10 NAH          0.7150     0.0030    -2.1080 na         1 42A      -0.267100
     11 CAF         -0.3840    -0.0030    -1.3090 cd         1 42A      -0.041100
     12 H1           2.1520     0.0000     2.0410 ha         1 42A       0.147000
     13 H2           4.5560     0.0000     1.3620 ha         1 42A       0.144000
     14 H3           5.1260     0.0020    -1.0510 h4         1 42A       0.028100
     15 H4           0.6700     0.0040    -3.1080 hn         1 42A       0.311700
     16 H5          -1.4040    -0.0060    -1.6730 h4         1 42A       0.182000
@<TRIPOS>BOND
     1     1     2 3
     2     2     3 1
     3    11     3 2
     4    11    10 1
     5     3     4 1
     6    10     9 1
     7     4     9 ar
     8     4     5 ar
     9     9     8 ar
    10     5     6 ar
    11     8     7 ar
    12     6     7 ar
    13     5    12 1
    14     6    13 1
    15     7    14 1
    16    10    15 1
    17    11    16 1
@<TRIPOS>SUBSTRUCTURE
     1 42A         1 TEMP              0 ****  ****    0 ROOT
