@<TRIPOS>MOLECULE
42B
   16    14     1     0     0
SMALL
bcc


@<TRIPOS>ATOM
      1 N1          0.4930   -0.1590   -2.3460 n2        1 42B     -0.823100
      2 C3          2.7850    0.2540    0.7400 c         1 42B      0.892600
      3 O3          2.3480   -0.6320   -0.0550 o         1 42B     -0.847800
      4 C4          3.7340   -0.2150    1.8640 c3        1 42B      0.024100
      5 O4          4.1530   -1.5590    1.6770 oh        1 42B     -0.646800
      6 C5          3.0580   -0.0790    3.2150 c3        1 42B     -0.092100
      7 C6          0.5900    1.0410   -1.9320 c2        1 42B      0.419100
      8 H1N1        0.0250    1.8240   -2.4730 h4        1 42B     -0.012200
      9 H1N2        1.0250   -0.8290   -1.8220 hn        1 42B      0.417400
     10 H4          2.1860   -0.7720    3.2800 hc        1 42B      0.023367
     11 HA          4.6720    0.4050    1.8390 h1        1 42B      0.037700
     12 H5C1        3.5630   -1.9470    1.0110 ho        1 42B      0.423000
     13 H5C2        3.7690   -0.3310    4.0370 hc        1 42B      0.023367
     14 H6C1        2.7000    0.9700    3.3400 hc        1 42B      0.023367
     15 H6C2        1.1970    1.3890   -1.0650 h4        1 42B     -0.012200
     16 O31         2.4920    1.4790    0.6580 o         1 42B     -0.847800
@<TRIPOS>BOND
     1    1    7 2   
     2    1    9 1   
     3    2    3 1   
     4    2    4 1   
     5    2   16 1   
     6    4    5 1   
     7    4    6 1   
     8    4   11 1   
     9    5   12 1   
    10    6   10 1   
    11    6   13 1   
    12    6   14 1   
    13    7    8 1   
    14    7   15 1   
@<TRIPOS>SUBSTRUCTURE
     1 42B         1 TEMP              0 ****  ****    0 ROOT
