@<TRIPOS>MOLECULE
molecule
   21    22     1     0     0
SMALL
bcc


@<TRIPOS>ATOM
      1 C1           0.0000     0.0000     0.0000 ca         1 42C       0.668200
      2 C2           1.3960     0.0000     0.0000 ca         1 42C      -0.367800
      3 C3           2.0690     0.0000     1.2340 ca         1 42C       0.627300
      4 C5           0.0320    -0.0120     2.3080 ca         1 42C       0.694900
      5 C8           3.5680    -0.0020    -0.3320 cc         1 42C       0.452700
      6 C11         -2.1560     0.0010    -0.9420 c3         1 42C       0.158600
      7 C12         -0.3180     1.1390    -2.0340 c3         1 42C       0.158600
      8 N10         -0.7080     0.0010    -1.1900 nh         1 42C      -0.706300
      9 N6          -0.6360    -0.0060     1.1690 nb         1 42C      -0.786000
     10 N4           1.3460    -0.0000     2.3590 nb         1 42C      -0.710000
     11 N9           3.3870    -0.0020     0.9580 nd         1 42C      -0.673700
     12 N7           2.3760    -0.0000    -0.9700 na         1 42C      -0.244300
     13 H5          -0.5250    -0.0160     3.2380 h5         1 42C       0.064100
     14 H8           4.5340    -0.0030    -0.8230 h5         1 42C       0.080800
     15 H11         -2.4340     0.9110    -0.4250 h1         1 42C       0.045533
     16 H11A        -2.6840    -0.0540    -1.8860 h1         1 42C       0.045533
     17 H11B        -2.4170    -0.8550    -0.3310 h1         1 42C       0.045533
     18 H12          0.1500     1.8990    -1.4220 h1         1 42C       0.045533
     19 H12A        -1.1980     1.5520    -2.5130 h1         1 42C       0.045533
     20 H12B         0.3810     0.8040    -2.7910 h1         1 42C       0.045533
     21 HN7          2.2310    -0.0000    -1.9600 hn         1 42C       0.309700
@<TRIPOS>BOND
     1     1     2 ar  
     2     1     8 1   
     3     1     9 ar  
     4     2     3 ar  
     5     2    12 1   
     6     3    10 ar  
     7     3    11 1   
     8     4     9 ar  
     9     4    10 ar  
    10     5    11 2   
    11     5    12 1   
    12     6     8 1   
    13     7     8 1   
    14     4    13 1   
    15     5    14 1   
    16     6    15 1   
    17     6    16 1   
    18     6    17 1   
    19     7    18 1   
    20     7    19 1   
    21     7    20 1   
    22    12    21 1   
@<TRIPOS>SUBSTRUCTURE
     1 42C         1 TEMP              0 ****  ****    0 ROOT
