@<TRIPOS>MOLECULE
42C
   21    22     1     0     0
SMALL
bcc


@<TRIPOS>ATOM
      1 C1           0.0000     0.0000     0.0000 ca         1 42C       0.555200
      2 C2           1.3960     0.0000     0.0000 ca         1 42C      -0.544800
      3 C3           2.0690     0.0000     1.2340 ca         1 42C       0.545300
      4 C5           0.0320    -0.0120     2.3080 ca         1 42C       0.636900
      5 C8           3.5680    -0.0020    -0.3320 cc         1 42C       0.256700
      6 C11         -2.1560     0.0010    -0.9420 c3         1 42C       0.172600
      7 C12         -0.3180     1.1390    -2.0340 c3         1 42C       0.172600
      8 N10         -0.7080     0.0010    -1.1900 nh         1 42C      -0.479300
      9 N6          -0.6360    -0.0060     1.1690 nb         1 42C      -0.678000
     10 N4           1.3460    -0.0000     2.3590 nb         1 42C      -0.587000
     11 N9           3.3870    -0.0020     0.9580 nd         1 42C      -0.585700
     12 N7           2.3760    -0.0000    -0.9700 na         1 42C       0.294700
     13 H5          -0.5250    -0.0160     3.2380 h5         1 42C       0.000100
     14 H8           4.5340    -0.0030    -0.8230 h5         1 42C       0.030800
     15 H11         -2.4340     0.9110    -0.4250 h1         1 42C       0.012367
     16 H11A        -2.6840    -0.0540    -1.8860 h1         1 42C       0.012367
     17 H11B        -2.4170    -0.8550    -0.3310 h1         1 42C       0.012367
     18 H12          0.1500     1.8990    -1.4220 h1         1 42C       0.012367
     19 H12A        -1.1980     1.5520    -2.5130 h1         1 42C       0.012367
     20 H12B         0.3810     0.8040    -2.7910 h1         1 42C       0.012367
     21 HN7          2.2310    -0.0000    -1.9600 hn         1 42C       0.134700
@<TRIPOS>BOND
     1     1     2 ar  
     2     1     8 1   
     3     1     9 ar  
     4     2     3 ar  
     5     2    12 1   
     6     3    10 ar  
     7     3    11 1   
     8     4     9 ar  
     9     4    10 ar  
    10     4    13 1   
    11     5    11 2   
    12     5    12 1   
    13     5    14 1   
    14     6     8 1   
    15     6    15 1   
    16     6    16 1   
    17     6    17 1   
    18     7     8 1   
    19     7    18 1   
    20     7    19 1   
    21     7    20 1   
    22    12    21 1   
@<TRIPOS>SUBSTRUCTURE
     1 42C         1 TEMP              0 ****  ****    0 ROOT
