@<TRIPOS>MOLECULE
42D
   40    40     1     0     0
SMALL
bcc


@<TRIPOS>ATOM
      1 O3           0.0000     0.0000     0.0000 o          1 42D      -0.872300
      2 C1           1.3430     0.0000     0.0000 c          1 42D       0.940600
      3 O1           1.9470    -0.0010    -1.0460 o          1 42D      -0.872300
      4 C2           2.0960     0.0000     1.3050 c3         1 42D       0.286600
      5 O2           3.4960     0.1160     1.0470 oh         1 42D      -0.585800
      6 C3           1.6340     1.1820     2.1610 c3         1 42D      -0.101400
      7 C4           0.1450     1.0190     2.4830 c3         1 42D       0.121100
      8 O4          -0.2770     2.0800     3.3420 oh         1 42D      -0.586800
      9 O6           1.8400    -1.2210     2.0030 os         1 42D      -0.382600
     10 C6           0.4590    -1.4500     2.2900 c3         1 42D       0.136100
     11 C7           0.3030    -2.7910     3.0100 c3         1 42D       0.185100
     12 C8           0.9430    -3.8980     2.1700 c3         1 42D       0.159100
     13 C9           0.7880    -5.2390     2.8890 c3         1 42D       0.179400
     14 O9           1.4870    -6.2540     2.1640 oh         1 42D      -0.592800
     15 O8           0.2990    -3.9640     0.8960 oh         1 42D      -0.574800
     16 O7           0.9470    -2.7260     4.2830 oh         1 42D      -0.570800
     17 C5          -0.0690    -0.3260     3.1850 c3         1 42D       0.000700
     18 N5          -1.4990    -0.5260     3.4310 ns         1 42D      -0.141900
     19 C10         -2.0720    -0.0060     4.5350 c          1 42D       0.663100
     20 O10         -1.4030     0.6290     5.3250 o          1 42D      -0.651000
     21 O11         -3.3870    -0.1900     4.7620 os         1 42D      -0.441900
     22 C22         -3.9360     0.3980     5.9700 c3         1 42D       0.286700
     23 H2           3.6860     0.9800     0.7210 ho         1 42D       0.397000
     24 H31C         2.2030     1.2040     3.0830 hc         1 42D       0.016700
     25 H32C         1.7860     2.1050     1.6140 hc         1 42D       0.016700
     26 H4          -0.4270     1.0420     1.5640 h1         1 42D       0.102700
     27 HA          -0.3850     2.8690     2.8380 ho         1 42D       0.372000
     28 H5           0.4690    -0.3310     4.1250 h1         1 42D       0.070700
     29 H6          -0.1020    -1.4650     1.3630 h1         1 42D       0.116700
     30 H7          -0.7500    -3.0060     3.1490 h1         1 42D       0.000700
     31 H8           1.9960    -3.6830     2.0310 h1         1 42D       0.047700
     32 HB           0.3980    -3.1300     4.9340 ho         1 42D       0.371000
     33 H91C        -0.2630    -5.4970     2.9490 h1         1 42D      -0.011300
     34 H92C         1.1980    -5.1620     3.8890 h1         1 42D      -0.011300
     35 HC           0.8720    -4.3840     0.2750 ho         1 42D       0.402000
     36 H9           1.4770    -7.0560     2.6590 ho         1 42D       0.379000
     37 HD          -2.0570    -1.0200     2.7640 hn         1 42D       0.174500
     38 H221        -3.8140     1.4740     5.9350 h1         1 42D      -0.009300
     39 H222        -3.4140     0.0030     6.8330 h1         1 42D      -0.009300
     40 H223        -4.9890     0.1560     6.0430 h1         1 42D      -0.009300
@<TRIPOS>BOND
     1     1     2 1   
     2     2     3 1   
     3     2     4 1   
     4     4     5 1   
     5     4     6 1   
     6     4     9 1   
     7     5    23 1   
     8     6     7 1   
     9     6    24 1   
    10     6    25 1   
    11     7     8 1   
    12     7    17 1   
    13     7    26 1   
    14     8    27 1   
    15     9    10 1   
    16    10    11 1   
    17    10    17 1   
    18    10    29 1   
    19    11    12 1   
    20    11    16 1   
    21    11    30 1   
    22    12    13 1   
    23    12    15 1   
    24    12    31 1   
    25    13    14 1   
    26    13    33 1   
    27    13    34 1   
    28    14    36 1   
    29    15    35 1   
    30    16    32 1   
    31    17    18 1   
    32    17    28 1   
    33    18    19 1   
    34    18    37 1   
    35    19    20 2   
    36    19    21 1   
    37    21    22 1   
    38    22    38 1   
    39    22    39 1   
    40    22    40 1   
@<TRIPOS>SUBSTRUCTURE
     1 42D         1 TEMP              0 ****  ****    0 ROOT
