@<TRIPOS>MOLECULE
molecule
   40    40     1     0     0
SMALL
bcc


@<TRIPOS>ATOM
      1 O3           0.0000     0.0000     0.0000 o          1 42D      -0.827300
      2 C1           1.3430     0.0000     0.0000 c          1 42D       0.857600
      3 O1           1.9470    -0.0010    -1.0460 o          1 42D      -0.827300
      4 C2           2.0960     0.0000     1.3050 c3         1 42D       0.261600
      5 O2           3.4960     0.1160     1.0470 oh         1 42D      -0.596800
      6 C3           1.6340     1.1820     2.1610 c3         1 42D      -0.152400
      7 C4           0.1450     1.0190     2.4830 c3         1 42D       0.109100
      8 O4          -0.2770     2.0800     3.3420 oh         1 42D      -0.608800
      9 O6           1.8400    -1.2210     2.0030 os         1 42D      -0.399600
     10 C6           0.4590    -1.4500     2.2900 c3         1 42D       0.143100
     11 C7           0.3030    -2.7910     3.0100 c3         1 42D       0.159100
     12 C8           0.9430    -3.8980     2.1700 c3         1 42D       0.136100
     13 C9           0.7880    -5.2390     2.8890 c3         1 42D       0.100400
     14 O9           1.4870    -6.2540     2.1640 oh         1 42D      -0.611800
     15 O8           0.2990    -3.9640     0.8960 oh         1 42D      -0.594800
     16 O7           0.9470    -2.7260     4.2830 oh         1 42D      -0.590800
     17 C5          -0.0690    -0.3260     3.1850 c3         1 42D       0.119700
     18 N5          -1.4990    -0.5260     3.4310 ns         1 42D      -0.554900
     19 C10         -2.0720    -0.0060     4.5350 c          1 42D       0.740100
     20 O10         -1.4030     0.6290     5.3250 o          1 42D      -0.598000
     21 O11         -3.3870    -0.1900     4.7620 os         1 42D      -0.456900
     22 C22         -3.9360     0.3980     5.9700 c3         1 42D       0.162700
     23 H2           3.6860     0.9800     0.7210 ho         1 42D       0.412000
     24 H31C         2.2030     1.2040     3.0830 hc         1 42D       0.043700
     25 H32C         1.7860     2.1050     1.6140 hc         1 42D       0.043700
     26 H4          -0.4270     1.0420     1.5640 h1         1 42D       0.119700
     27 HA          -0.3850     2.8690     2.8380 ho         1 42D       0.385000
     28 H5           0.4690    -0.3310     4.1250 h1         1 42D       0.091700
     29 H6          -0.1020    -1.4650     1.3630 h1         1 42D       0.135700
     30 H7          -0.7500    -3.0060     3.1490 h1         1 42D       0.038700
     31 H8           1.9960    -3.6830     2.0310 h1         1 42D       0.084700
     32 HB           0.3980    -3.1300     4.9340 ho         1 42D       0.386000
     33 H91C        -0.2630    -5.4970     2.9490 h1         1 42D       0.021700
     34 H92C         1.1980    -5.1620     3.8890 h1         1 42D       0.021700
     35 HC           0.8720    -4.3840     0.2750 ho         1 42D       0.417000
     36 H9           1.4770    -7.0560     2.6590 ho         1 42D       0.391000
     37 HD          -2.0570    -1.0200     2.7640 hn         1 42D       0.322500
     38 H221        -3.8140     1.4740     5.9350 h1         1 42D       0.039033
     39 H222        -3.4140     0.0030     6.8330 h1         1 42D       0.039033
     40 H223        -4.9890     0.1560     6.0430 h1         1 42D       0.039033
@<TRIPOS>BOND
     1     1     2 1
     2     2     3 1
     3     2     4 1
     4     4     5 1
     5     4     6 1
     6     4     9 1
     7     6     7 1
     8     7     8 1
     9     7    17 1
    10     9    10 1
    11    10    11 1
    12    10    17 1
    13    11    12 1
    14    11    16 1
    15    12    13 1
    16    12    15 1
    17    13    14 1
    18    17    18 1
    19    18    19 1
    20    19    20 2
    21    19    21 1
    22    21    22 1
    23     5    23 1
    24     6    24 1
    25     6    25 1
    26     7    26 1
    27     8    27 1
    28    17    28 1
    29    10    29 1
    30    11    30 1
    31    12    31 1
    32    16    32 1
    33    13    33 1
    34    13    34 1
    35    15    35 1
    36    14    36 1
    37    18    37 1
    38    22    38 1
    39    22    39 1
    40    22    40 1
@<TRIPOS>SUBSTRUCTURE
     1 42D         1 TEMP              0 ****  ****    0 ROOT
