@<TRIPOS>MOLECULE
molecule
   30    31     1     0     0
SMALL
bcc


@<TRIPOS>ATOM
      1 PA           0.0000     0.0000     0.0000 p5         1 42E       1.180900
      2 O1A          1.6100     0.0000     0.0000 o          1 42E      -0.789167
      3 O2A         -0.5370     0.0000     1.5180 o          1 42E      -0.789167
      4 O5'         -0.5370     1.3140    -0.7600 os         1 42E      -0.582200
      5 C5'         -1.9210     1.5530    -1.0180 c3         1 42E       0.224400
      6 C4'         -2.0810     2.8860    -1.7510 c3         1 42E       0.252200
      7 O4'         -1.3720     2.8670    -3.0040 os         1 42E      -0.417600
      8 S3'         -1.2400     4.2420    -0.8330 ss         1 42E      -0.342200
      9 C2'         -0.8990     5.2150    -2.3610 c3         1 42E      -0.024300
     10 C1'         -0.7420     4.0750    -3.3960 c3         1 42E       0.307500
     11 N1           0.6860     3.8170    -3.5960 n          1 42E      -0.338000
     12 C2           1.5060     4.8250    -3.9460 c          1 42E       0.850900
     13 O2           1.0490     5.9460    -4.0930 o          1 42E      -0.654500
     14 N3           2.8080     4.6180    -4.1350 nc         1 42E      -0.767100
     15 C4           3.3310     3.4090    -3.9810 cc         1 42E       0.462500
     16 N4           4.6780     3.2070    -4.1780 nz         1 42E      -0.835600
     17 C5           2.4990     2.3300    -3.6160 cc         1 42E      -0.390600
     18 C6           1.1780     2.5590    -3.4220 cd         1 42E       0.132600
     19 H3          -2.3170     0.7530    -1.6320 h1         1 42E       0.052700
     20 H4          -2.4620     1.5900    -0.0800 h1         1 42E       0.052700
     21 H5          -3.1270     3.1220    -1.9090 h2         1 42E       0.057700
     22 H6          -1.9750     5.0960    -2.3930 h1         1 42E       0.101200
     23 H7          -0.4750     6.2110    -2.4010 h1         1 42E       0.101200
     24 H8          -1.1750     4.4000    -4.3340 h2         1 42E       0.083700
     25 H9           4.1840     3.5140    -4.9930 hn         1 42E       0.480800
     26 H10          4.9980     2.2580    -4.1750 hn         1 42E       0.480800
     27 H11          2.9100     1.3370    -3.4840 ha         1 42E       0.175000
     28 H12          0.5180     1.7470    -3.1410 h4         1 42E       0.244000
     29 OP3         -0.4930    -1.2240    -0.6710 o          1 42E      -0.789167
     30 H43          5.3010     3.8660    -3.7550 hn         1 42E       0.480800
@<TRIPOS>BOND
     1     2     1 1
     2     3     1 1
     3     1     4 1
     4     4     5 1
     5     5     6 1
     6     8     6 1
     7     8     9 1
     8    17    18 2
     9    17    15 1
    10     6     7 1
    11    18    11 1
    12    16    15 1
    13    15    14 2
    14     9    10 1
    15     7    10 1
    16    11    10 1
    17    11    12 1
    18    14    12 1
    19    12    13 2
    20     5    19 1
    21     5    20 1
    22     6    21 1
    23     9    22 1
    24     9    23 1
    25    10    24 1
    26    16    25 1
    27    16    26 1
    28    17    27 1
    29    18    28 1
    30     1    29 1
    31    30    16 1
@<TRIPOS>SUBSTRUCTURE
     1 42E         1 TEMP              0 ****  ****    0 ROOT
