@<TRIPOS>MOLECULE
42F
   40    42     1     0     0
SMALL
bcc


@<TRIPOS>ATOM
      1 O            0.0000     0.0000     0.0000 o          1 42F      -0.555000
      2 C14          1.2090     0.0000     0.0000 c          1 42F       0.689100
      3 O1           1.8790     0.0050    -1.1630 os         1 42F      -0.415900
      4 C15          1.0880     0.0110    -2.3810 c3         1 42F       0.262700
      5 C5           1.9620     0.0000     1.3050 c3         1 42F      -0.076700
      6 C4           1.3490    -1.0420     2.2540 c3         1 42F       0.139500
      7 C3           1.9270    -0.7940     3.6650 c3         1 42F      -0.060400
      8 C2           0.9700     0.2310     4.3110 c3         1 42F      -0.065400
      9 N           -0.0960    -0.7180     2.3890 n3         1 42F      -0.505600
     10 C           -0.8210    -1.8110     3.0510 c3         1 42F       0.180100
     11 C6           1.8620     1.3830     1.9550 c3         1 42F       0.008600
     12 C7           0.4100     1.6640     2.3510 c3         1 42F      -0.036400
     13 C1          -0.0990     0.5090     3.2300 c3         1 42F       0.135500
     14 C8           2.3250     2.4320     0.9770 ca         1 42F      -0.090300
     15 C13          3.5620     3.0280     1.1370 ca         1 42F      -0.099500
     16 C12          3.9900     3.9850     0.2370 ca         1 42F      -0.080500
     17 C11          3.1800     4.3470    -0.8240 ca         1 42F       0.202900
     18 I            3.8290     5.7990    -2.1890 i          1 42F      -0.299900
     19 C10          1.9430     3.7510    -0.9840 ca         1 42F      -0.080500
     20 C9           1.5150     2.7930    -0.0840 ca         1 42F      -0.099500
     21 H1           0.6060    -0.9510    -2.5030 h1         1 42F       0.001033
     22 H2           0.3340     0.7870    -2.3180 h1         1 42F       0.001033
     23 H3           1.7330     0.2030    -3.2290 h1         1 42F       0.001033
     24 H4           3.0020    -0.2420     1.1230 hc         1 42F       0.042700
     25 H5           1.5120    -2.0570     1.9150 h1         1 42F       0.045700
     26 H6           2.9280    -0.3840     3.5960 hc         1 42F       0.024200
     27 H7           1.9350    -1.7140     4.2370 hc         1 42F       0.024200
     28 H8           0.5100    -0.1890     5.1970 hc         1 42F       0.024700
     29 H9           1.5030     1.1420     4.5570 hc         1 42F       0.024700
     30 H11         -0.7190    -2.7180     2.4680 h1         1 42F       0.002367
     31 H12         -1.8690    -1.5510     3.1340 h1         1 42F       0.002367
     32 H13         -0.4090    -1.9700     4.0410 h1         1 42F       0.002367
     33 H14          2.4880     1.4120     2.8380 hc         1 42F       0.048700
     34 H15         -0.2020     1.7390     1.4610 hc         1 42F       0.038700
     35 H16          0.3580     2.5920     2.9070 hc         1 42F       0.038700
     36 H17         -1.0730     0.7120     3.6570 h1         1 42F       0.044700
     37 H18          4.1970     2.7450     1.9690 ha         1 42F       0.122000
     38 H19          4.9590     4.4520     0.3620 ha         1 42F       0.117000
     39 H20          1.3080     4.0340    -1.8150 ha         1 42F       0.117000
     40 H21          0.5460     2.3260    -0.2090 ha         1 42F       0.122000
@<TRIPOS>BOND
     1     1     2 2   
     2     2     3 1   
     3     2     5 1   
     4     3     4 1   
     5     4    21 1   
     6     4    22 1   
     7     4    23 1   
     8     5     6 1   
     9     5    11 1   
    10     5    24 1   
    11     6     7 1   
    12     6     9 1   
    13     6    25 1   
    14     7     8 1   
    15     7    26 1   
    16     7    27 1   
    17     8    13 1   
    18     8    28 1   
    19     8    29 1   
    20     9    10 1   
    21     9    13 1   
    22    10    30 1   
    23    10    31 1   
    24    10    32 1   
    25    11    12 1   
    26    11    14 1   
    27    11    33 1   
    28    12    13 1   
    29    12    34 1   
    30    12    35 1   
    31    13    36 1   
    32    14    15 ar  
    33    14    20 ar  
    34    15    16 ar  
    35    15    37 1   
    36    16    17 ar  
    37    16    38 1   
    38    17    18 1   
    39    17    19 ar  
    40    19    20 ar  
    41    19    39 1   
    42    20    40 1   
@<TRIPOS>SUBSTRUCTURE
     1 42F         1 TEMP              0 ****  ****    0 ROOT
