@<TRIPOS>MOLECULE
molecule
   40    42     1     0     0
SMALL
bcc


@<TRIPOS>ATOM
      1 O            0.0000     0.0000     0.0000 o          1 42F      -0.517000
      2 C14          1.2090     0.0000     0.0000 c          1 42F       0.629100
      3 O1           1.8790     0.0050    -1.1630 os         1 42F      -0.431900
      4 C15          1.0880     0.0110    -2.3810 c3         1 42F       0.138700
      5 C5           1.9620     0.0000     1.3050 c3         1 42F      -0.090700
      6 C4           1.3490    -1.0420     2.2540 c3         1 42F       0.160500
      7 C3           1.9270    -0.7940     3.6650 c3         1 42F      -0.114400
      8 C2           0.9700     0.2310     4.3110 c3         1 42F      -0.119400
      9 N           -0.0960    -0.7180     2.3890 n3         1 42F      -0.662600
     10 C           -0.8210    -1.8110     3.0510 c3         1 42F       0.140100
     11 C6           1.8620     1.3830     1.9550 c3         1 42F      -0.017400
     12 C7           0.4100     1.6640     2.3510 c3         1 42F      -0.069400
     13 C1          -0.0990     0.5090     3.2300 c3         1 42F       0.154500
     14 C8           2.3250     2.4320     0.9770 ca         1 42F      -0.072300
     15 C13          3.5620     3.0280     1.1370 ca         1 42F      -0.126000
     16 C12          3.9900     3.9850     0.2370 ca         1 42F      -0.095000
     17 C11          3.1800     4.3470    -0.8240 ca         1 42F       0.054900
     18 I            3.8290     5.7990    -2.1890 i          1 42F      -0.174900
     19 C10          1.9430     3.7510    -0.9840 ca         1 42F      -0.095000
     20 C9           1.5150     2.7930    -0.0840 ca         1 42F      -0.126000
     21 H1           0.6060    -0.9510    -2.5030 h1         1 42F       0.047033
     22 H2           0.3340     0.7870    -2.3180 h1         1 42F       0.047033
     23 H3           1.7330     0.2030    -3.2290 h1         1 42F       0.047033
     24 H4           3.0020    -0.2420     1.1230 hc         1 42F       0.073700
     25 H5           1.5120    -2.0570     1.9150 h1         1 42F       0.077700
     26 H6           2.9280    -0.3840     3.5960 hc         1 42F       0.049700
     27 H7           1.9350    -1.7140     4.2370 hc         1 42F       0.049700
     28 H8           0.5100    -0.1890     5.1970 hc         1 42F       0.049200
     29 H9           1.5030     1.1420     4.5570 hc         1 42F       0.049200
     30 H11         -0.7190    -2.7180     2.4680 h1         1 42F       0.033700
     31 H12         -1.8690    -1.5510     3.1340 h1         1 42F       0.033700
     32 H13         -0.4090    -1.9700     4.0410 h1         1 42F       0.033700
     33 H14          2.4880     1.4120     2.8380 hc         1 42F       0.068700
     34 H15         -0.2020     1.7390     1.4610 hc         1 42F       0.063700
     35 H16          0.3580     2.5920     2.9070 hc         1 42F       0.063700
     36 H17         -1.0730     0.7120     3.6570 h1         1 42F       0.076700
     37 H18          4.1970     2.7450     1.9690 ha         1 42F       0.143500
     38 H19          4.9590     4.4520     0.3620 ha         1 42F       0.141000
     39 H20          1.3080     4.0340    -1.8150 ha         1 42F       0.141000
     40 H21          0.5460     2.3260    -0.2090 ha         1 42F       0.143500
@<TRIPOS>BOND
     1    18    17 1   
     2    16    17 ar  
     3    16    15 ar  
     4    17    19 ar  
     5    15    14 ar  
     6    19    20 ar  
     7     3     2 1   
     8     3     4 1   
     9     1     2 2   
    10    14    20 ar  
    11    14    11 1   
    12     2     5 1   
    13    12    11 1   
    14    12    13 1   
    15    11     5 1   
    16     5     6 1   
    17    13     9 1   
    18    13     8 1   
    19     9     6 1   
    20     9    10 1   
    21     6     7 1   
    22     8     7 1   
    23     4    21 1   
    24     4    22 1   
    25     4    23 1   
    26     5    24 1   
    27     6    25 1   
    28     7    26 1   
    29     7    27 1   
    30     8    28 1   
    31     8    29 1   
    32    10    30 1   
    33    10    31 1   
    34    10    32 1   
    35    11    33 1   
    36    12    34 1   
    37    12    35 1   
    38    13    36 1   
    39    15    37 1   
    40    16    38 1   
    41    19    39 1   
    42    20    40 1   
@<TRIPOS>SUBSTRUCTURE
     1 42F         1 TEMP              0 ****  ****    0 ROOT
