@<TRIPOS>MOLECULE
42G
   60    61     1     0     0
SMALL
bcc


@<TRIPOS>ATOM
      1 C01          0.0000     0.0000     0.0000 ca         1 42G      -0.234500
      2 C02          1.3820     0.0000     0.0000 ca         1 42G       0.018000
      3 C03          2.0730     0.0000     1.1980 ca         1 42G      -0.104000
      4 C04          1.3820    -0.0000     2.3950 ca         1 42G       0.024700
      5 C05         -0.0000     0.0010     2.3950 ca         1 42G      -0.104000
      6 C06         -0.6910     0.0070     1.1980 ca         1 42G       0.018000
      7 S07         -0.8810    -0.0010    -1.5250 sy         1 42G       0.934200
      8 O08         -2.1650     0.5430    -1.2480 o          1 42G      -0.494300
      9 O09          0.0000     0.5430    -2.4980 o          1 42G      -0.494300
     10 N10         -1.1260    -1.5830    -1.9500 nz         1 42G      -0.131500
     11 C11          2.1360    -0.0010     3.7000 c3         1 42G      -0.006100
     12 C12          2.3920     1.4420     4.1420 c3         1 42G       0.065000
     13 N13          3.1240     1.4410     5.4100 ns         1 42G      -0.221900
     14 C14          3.4620     2.6080     5.9940 c          1 42G       0.615700
     15 O15          3.1580     3.6610     5.4680 o          1 42G      -0.646100
     16 C16          4.2000     2.6060     7.2730 ca         1 42G      -0.218600
     17 C17          4.5540     1.3970     7.8770 ca         1 42G      -0.010500
     18 C18          5.2480     1.4010     9.0660 ca         1 42G      -0.188500
     19 C19          5.5950     2.6050     9.6670 ca         1 42G       0.192100
     20 C20          5.2450     3.8100     9.0690 ca         1 42G      -0.188500
     21 C21          4.5510     3.8150     7.8800 ca         1 42G      -0.010500
     22 O22          6.2780     2.6040    10.8400 os         1 42G      -0.299900
     23 C23          6.6040     3.8770    11.4020 c3         1 42G       0.174400
     24 C24          7.3670     3.6750    12.7120 c3         1 42G       0.188100
     25 O25          6.5130     3.0460    13.6690 oh         1 42G      -0.565800
     26 C26          7.8230     5.0330    13.2500 c3         1 42G       0.129800
     27 N27          8.6580     4.8320    14.4420 n7         1 42G      -0.571200
     28 C28          9.1150     6.1170    14.9880 c3         1 42G       0.113500
     29 C29          9.4160     5.9590    16.4800 c3         1 42G      -0.009600
     30 C30         10.3830     6.5590    14.2550 c3         1 42G      -0.009600
     31 H1           1.9240    -0.0030    -0.9380 ha         1 42G       0.126000
     32 H2           3.1570    -0.0000     1.1980 ha         1 42G       0.136000
     33 H3          -0.5420     0.0030     3.3330 ha         1 42G       0.136000
     34 H4          -1.7750     0.0070     1.1990 ha         1 42G       0.126000
     35 H5          -0.2430    -2.0410    -2.0530 hn         1 42G       0.313133
     36 H6          -1.6260    -1.6220    -2.8160 hn         1 42G       0.313133
     37 H7           3.0820    -0.5120     3.5700 hc         1 42G       0.034200
     38 H8           1.5510    -0.5120     4.4560 hc         1 42G       0.034200
     39 H9           1.4460     1.9530     4.2710 h1         1 42G       0.028700
     40 H10          2.9780     1.9520     3.3870 h1         1 42G       0.028700
     41 H11          3.3670     0.5740     5.8480 hn         1 42G       0.184500
     42 H12          4.2840     0.4580     7.4090 ha         1 42G       0.109500
     43 H13          5.5230     0.4630     9.5350 ha         1 42G       0.125000
     44 H14          5.5170     4.7470     9.5400 ha         1 42G       0.125000
     45 H15          4.2780     4.7540     7.4150 ha         1 42G       0.109500
     46 H16          7.2210     4.4320    10.7060 h1         1 42G       0.014700
     47 H17          5.6920     4.4290    11.5960 h1         1 42G       0.014700
     48 H18          8.2320     3.0480    12.5330 h1         1 42G       0.005700
     49 H19          6.7930     2.1560    13.8030 ho         1 42G       0.394000
     50 H20          8.3970     5.5490    12.4900 h1         1 42G       0.016700
     51 H21          6.9560     5.6280    13.5130 h1         1 42G       0.016700
     52 H22          9.4510     4.2700    14.2040 hn         1 42G       0.252800
     53 H24          8.3410     6.8630    14.8530 h1         1 42G       0.032700
     54 H25          9.7260     6.9140    16.8880 hc         1 42G       0.007700
     55 H26          8.5260     5.6190    16.9940 hc         1 42G       0.007700
     56 H27         10.2100     5.2350    16.6130 hc         1 42G       0.007700
     57 H28         10.1270     6.8860    13.2550 hc         1 42G       0.007700
     58 H29         10.8460     7.3760    14.7950 hc         1 42G       0.007700
     59 H30         11.0750     5.7270    14.1970 hc         1 42G       0.007700
     60 H103        -1.6560    -2.0420    -1.2350 hn         1 42G       0.313133
@<TRIPOS>BOND
     1     1     2 ar  
     2     1     6 ar  
     3     1     7 1   
     4     2     3 ar  
     5     2    31 1   
     6     3     4 ar  
     7     3    32 1   
     8     4     5 ar  
     9     4    11 1   
    10     5     6 ar  
    11     5    33 1   
    12     6    34 1   
    13     7     8 2   
    14     7     9 2   
    15     7    10 1   
    16    10    35 1   
    17    10    36 1   
    18    10    60 1   
    19    11    12 1   
    20    11    37 1   
    21    11    38 1   
    22    12    13 1   
    23    12    39 1   
    24    12    40 1   
    25    13    14 1   
    26    13    41 1   
    27    14    15 2   
    28    14    16 1   
    29    16    17 ar  
    30    16    21 ar  
    31    17    18 ar  
    32    17    42 1   
    33    18    19 ar  
    34    18    43 1   
    35    19    20 ar  
    36    19    22 1   
    37    20    21 ar  
    38    20    44 1   
    39    21    45 1   
    40    22    23 1   
    41    23    24 1   
    42    23    46 1   
    43    23    47 1   
    44    24    25 1   
    45    24    26 1   
    46    24    48 1   
    47    25    49 1   
    48    26    27 1   
    49    26    50 1   
    50    26    51 1   
    51    27    28 1   
    52    27    52 1   
    53    28    29 1   
    54    28    30 1   
    55    28    53 1   
    56    29    54 1   
    57    29    55 1   
    58    29    56 1   
    59    30    57 1   
    60    30    58 1   
    61    30    59 1   
@<TRIPOS>SUBSTRUCTURE
     1 42G         1 TEMP              0 ****  ****    0 ROOT
