@<TRIPOS>MOLECULE
42H
   87    86     1     0     0
SMALL
bcc


@<TRIPOS>ATOM
      1 O6           0.0000     0.0000     0.0000 o          1 42H      -0.588000
      2 C8           1.2080     0.0000     0.0000 c          1 42H       0.692100
      3 O5           1.8800     0.0000     1.1620 os         1 42H      -0.417900
      4 C7           1.0900    -0.0000     2.3800 c3         1 42H       0.207400
      5 C            2.0220     0.0010     3.5930 c3         1 42H       0.157100
      6 C1           1.1940    -0.1250     4.8740 c3         1 42H       0.308400
      7 O1           2.0680    -0.2420     5.9970 os         1 42H      -0.510200
      8 P            1.5380    -0.3930     7.5090 p5         1 42H       0.919800
      9 O4           0.6150    -1.5470     7.5960 o          1 42H      -0.635000
     10 O3           2.7880    -0.6310     8.4960 os         1 42H      -0.526200
     11 C2           2.6390    -0.9050     9.8910 c3         1 42H       0.291400
     12 C3           4.0180    -1.0770    10.5270 c3         1 42H      -0.039200
     13 N            4.7250     0.2110    10.5200 n4         1 42H       0.062200
     14 C6           6.0610     0.0390    11.1070 c3         1 42H       0.009433
     15 C5           4.8540     0.6910     9.1390 c3         1 42H       0.009433
     16 C4           3.9650     1.1900    11.3100 c3         1 42H       0.009433
     17 O2           0.7610     0.9490     7.9420 o          1 42H      -0.635000
     18 O            2.7640     1.2210     3.6240 oh         1 42H      -0.577800
     19 C9           1.9610    -0.0060    -1.3060 c3         1 42H      -0.071400
     20 C10          0.9660    -0.0120    -2.4680 c3         1 42H      -0.020400
     21 C11          1.7300    -0.0180    -3.7930 c3         1 42H      -0.030400
     22 C12          0.7350    -0.0240    -4.9560 c3         1 42H      -0.027400
     23 C13          1.5000    -0.0300    -6.2810 c3         1 42H      -0.029400
     24 C14          0.5050    -0.0360    -7.4430 c3         1 42H      -0.023400
     25 C15          1.2690    -0.0420    -8.7690 c3         1 42H      -0.005200
     26 C16          0.2900    -0.0470    -9.9140 c2         1 42H      -0.156200
     27 C17          0.3880     0.8480   -10.8650 c2         1 42H      -0.158200
     28 C18          1.5880     1.7590   -10.9200 c3         1 42H      -0.004200
     29 C19          2.2260     1.6770   -12.3080 c3         1 42H      -0.024400
     30 C20          3.4440     2.6020   -12.3650 c3         1 42H      -0.029400
     31 C21          4.0830     2.5200   -13.7520 c3         1 42H      -0.029400
     32 C22          5.3010     3.4450   -13.8100 c3         1 42H      -0.029400
     33 C23          5.9390     3.3620   -15.1970 c3         1 42H      -0.029400
     34 C24          7.1560     4.2870   -15.2540 c3         1 42H      -0.028400
     35 C25          7.7960     4.2050   -16.6410 c3         1 42H       0.006900
     36 H1           0.4640     0.8840     2.4050 h1         1 42H       0.020700
     37 H2           0.4660    -0.8850     2.4050 h1         1 42H       0.020700
     38 H3           2.7070    -0.8360     3.5230 h1         1 42H       0.001700
     39 H4           0.5730     0.7540     4.9900 h1         1 42H      -0.000800
     40 H5           0.5660    -1.0060     4.8120 h1         1 42H      -0.000800
     41 H6           2.1210    -0.0810    10.3670 h1         1 42H       0.019700
     42 H7           2.0650    -1.8150    10.0200 h1         1 42H       0.019700
     43 H8           4.5880    -1.8050     9.9630 hx         1 42H       0.064700
     44 H9           3.9040    -1.4210    11.5480 hx         1 42H       0.064700
     45 H10          6.5790     0.9910    11.1090 hx         1 42H       0.071033
     46 H11          6.6240    -0.6770    10.5200 hx         1 42H       0.071033
     47 H12          5.9650    -0.3220    12.1230 hx         1 42H       0.071033
     48 H13          5.6850     1.3840     9.0730 hx         1 42H       0.071033
     49 H14          5.0330    -0.1500     8.4790 hx         1 42H       0.071033
     50 H15          3.9410     1.1930     8.8440 hx         1 42H       0.071033
     51 H16          4.6190     2.0030    11.6030 hx         1 42H       0.071033
     52 H17          3.1490     1.5790    10.7140 hx         1 42H       0.071033
     53 H18          3.5680     0.7090    12.1960 hx         1 42H       0.071033
     54 H20          3.6840     1.0320     3.5420 ho         1 42H       0.381000
     55 H21          2.5840    -0.8900    -1.3590 hc         1 42H       0.032700
     56 H22          2.5830     0.8790    -1.3680 hc         1 42H       0.032700
     57 H23          0.3440    -0.8970    -2.4050 hc         1 42H       0.030200
     58 H24          0.3430     0.8720    -2.4140 hc         1 42H       0.030200
     59 H25          2.3530     0.8660    -3.8550 hc         1 42H       0.011700
     60 H26          2.3530    -0.9030    -3.8460 hc         1 42H       0.011700
     61 H27          0.1130    -0.9080    -4.8940 hc         1 42H       0.017700
     62 H28          0.1130     0.8610    -4.9020 hc         1 42H       0.017700
     63 H29          2.1230     0.8540    -6.3430 hc         1 42H       0.013200
     64 H30          2.1230    -0.9150    -6.3350 hc         1 42H       0.013200
     65 H31         -0.1180    -0.9200    -7.3810 hc         1 42H       0.016200
     66 H32         -0.1180     0.8490    -7.3900 hc         1 42H       0.016200
     67 H33          1.8920    -0.9270    -8.8220 hc         1 42H       0.026200
     68 H34          1.8930     0.8420    -8.8300 hc         1 42H       0.026200
     69 H35         -0.5730    -0.7010    -9.8770 ha         1 42H       0.102000
     70 H36         -0.3190     0.8410   -11.6860 ha         1 42H       0.102000
     71 H37          1.2770     2.7780   -10.7260 hc         1 42H       0.026700
     72 H38          2.3090     1.4530   -10.1730 hc         1 42H       0.026700
     73 H39          1.5050     1.9840   -13.0560 hc         1 42H       0.015200
     74 H40          2.5370     0.6580   -12.5030 hc         1 42H       0.015200
     75 H41          3.1330     3.6210   -12.1700 hc         1 42H       0.014200
     76 H42          4.1650     2.2950   -11.6160 hc         1 42H       0.014200
     77 H43          3.3610     2.8260   -14.5000 hc         1 42H       0.014700
     78 H44          4.3940     1.5010   -13.9470 hc         1 42H       0.014700
     79 H45          4.9890     4.4640   -13.6150 hc         1 42H       0.014700
     80 H46          6.0220     3.1390   -13.0610 hc         1 42H       0.014700
     81 H47          5.2180     3.6680   -15.9460 hc         1 42H       0.014700
     82 H48          6.2510     2.3420   -15.3910 hc         1 42H       0.014700
     83 H49          6.8450     5.3060   -15.0600 hc         1 42H       0.011700
     84 H50          7.8770     3.9820   -14.5050 hc         1 42H       0.011700
     85 H51          8.1130     3.1870   -16.8330 hc         1 42H       0.000033
     86 H52          7.0730     4.5040   -17.3900 hc         1 42H       0.000033
     87 H53          8.6540     4.8640   -16.6840 hc         1 42H       0.000033
@<TRIPOS>BOND
     1     1     2 2   
     2     2     3 1   
     3     2    19 1   
     4     3     4 1   
     5     4     5 1   
     6     4    36 1   
     7     4    37 1   
     8     5     6 1   
     9     5    18 1   
    10     5    38 1   
    11     6     7 1   
    12     6    39 1   
    13     6    40 1   
    14     7     8 1   
    15     8     9 1   
    16     8    10 1   
    17     8    17 1   
    18    10    11 1   
    19    11    12 1   
    20    11    41 1   
    21    11    42 1   
    22    12    13 1   
    23    12    43 1   
    24    12    44 1   
    25    13    14 1   
    26    13    15 1   
    27    13    16 1   
    28    14    45 1   
    29    14    46 1   
    30    14    47 1   
    31    15    48 1   
    32    15    49 1   
    33    15    50 1   
    34    16    51 1   
    35    16    52 1   
    36    16    53 1   
    37    18    54 1   
    38    19    20 1   
    39    19    55 1   
    40    19    56 1   
    41    20    21 1   
    42    20    57 1   
    43    20    58 1   
    44    21    22 1   
    45    21    59 1   
    46    21    60 1   
    47    22    23 1   
    48    22    61 1   
    49    22    62 1   
    50    23    24 1   
    51    23    63 1   
    52    23    64 1   
    53    24    25 1   
    54    24    65 1   
    55    24    66 1   
    56    25    26 1   
    57    25    67 1   
    58    25    68 1   
    59    26    27 2   
    60    26    69 1   
    61    27    28 1   
    62    27    70 1   
    63    28    29 1   
    64    28    71 1   
    65    28    72 1   
    66    29    30 1   
    67    29    73 1   
    68    29    74 1   
    69    30    31 1   
    70    30    75 1   
    71    30    76 1   
    72    31    32 1   
    73    31    77 1   
    74    31    78 1   
    75    32    33 1   
    76    32    79 1   
    77    32    80 1   
    78    33    34 1   
    79    33    81 1   
    80    33    82 1   
    81    34    35 1   
    82    34    83 1   
    83    34    84 1   
    84    35    85 1   
    85    35    86 1   
    86    35    87 1   
@<TRIPOS>SUBSTRUCTURE
     1 42H         1 TEMP              0 ****  ****    0 ROOT
