@<TRIPOS>MOLECULE
42J
   21    21     1     0     0
SMALL
bcc


@<TRIPOS>ATOM
      1 Cl1          0.0000     0.0000     0.0000 cl         1 42J       0.044600
      2 C6           1.7360     0.0000     0.0000 ca         1 42J      -0.043600
      3 C5           2.4300     0.0000     1.1990 ca         1 42J      -0.028600
      4 Cl           1.5630    -0.0000     2.7030 cl         1 42J       0.052600
      5 C4           3.8130     0.0000     1.1960 ca         1 42J      -0.072000
      6 C3           4.5030    -0.0000    -0.0010 ca         1 42J      -0.077000
      7 C7           2.4280    -0.0070    -1.1980 ca         1 42J      -0.076000
      8 C2           3.8100    -0.0010    -1.1980 ca         1 42J      -0.140300
      9 C1           4.5640    -0.0010    -2.5040 c3         1 42J       0.042900
     10 C            4.8190    -1.4430    -2.9450 c3         1 42J      -0.057200
     11 N            5.5530    -1.4440    -4.2170 nz         1 42J       0.085400
     12 H1           4.3560     0.0000     2.1340 ha         1 42J       0.131000
     13 H2           5.5860     0.0020    -0.0020 ha         1 42J       0.107000
     14 H3           1.8870    -0.0070    -2.1360 ha         1 42J       0.115000
     15 H4           5.5100     0.5100    -2.3750 hc         1 42J       0.034700
     16 H5           3.9780     0.5100    -3.2590 hc         1 42J       0.034700
     17 H6           5.4050    -1.9530    -2.1900 hx         1 42J       0.088700
     18 H7           3.8720    -1.9540    -3.0740 hx         1 42J       0.088700
     19 H8           6.4270    -0.9720    -4.0980 hn         1 42J       0.223133
     20 H9           5.0110    -0.9720    -4.9150 hn         1 42J       0.223133
     21 HN3          5.7190    -2.3870    -4.5060 hn         1 42J       0.223133
@<TRIPOS>BOND
     1     1     2 1   
     2     2     3 ar  
     3     2     7 ar  
     4     3     4 1   
     5     3     5 ar  
     6     5     6 ar  
     7     5    12 1   
     8     6     8 ar  
     9     6    13 1   
    10     7     8 ar  
    11     7    14 1   
    12     8     9 1   
    13     9    10 1   
    14     9    15 1   
    15     9    16 1   
    16    10    11 1   
    17    10    17 1   
    18    10    18 1   
    19    11    19 1   
    20    11    20 1   
    21    11    21 1   
@<TRIPOS>SUBSTRUCTURE
     1 42J         1 TEMP              0 ****  ****    0 ROOT
