@<TRIPOS>MOLECULE
molecule
   21    21     1     0     0
SMALL
bcc


@<TRIPOS>ATOM
      1 Cl1          0.0000     0.0000     0.0000 cl         1 42J      -0.045400
      2 C6           1.7360     0.0000     0.0000 ca         1 42J       0.034400
      3 C5           2.4300     0.0000     1.1990 ca         1 42J       0.051400
      4 Cl           1.5630    -0.0000     2.7030 cl         1 42J      -0.039400
      5 C4           3.8130     0.0000     1.1960 ca         1 42J      -0.100000
      6 C3           4.5030    -0.0000    -0.0010 ca         1 42J      -0.108000
      7 C7           2.4280    -0.0070    -1.1980 ca         1 42J      -0.103000
      8 C2           3.8100    -0.0010    -1.1980 ca         1 42J      -0.123300
      9 C1           4.5640    -0.0010    -2.5040 c3         1 42J      -0.049100
     10 C            4.8190    -1.4430    -2.9450 c3         1 42J       0.091800
     11 N            5.5530    -1.4440    -4.2170 nz         1 42J      -0.811600
     12 H1           4.3560     0.0000     2.1340 ha         1 42J       0.169000
     13 H2           5.5860     0.0020    -0.0020 ha         1 42J       0.139000
     14 H3           1.8870    -0.0070    -2.1360 ha         1 42J       0.148000
     15 H4           5.5100     0.5100    -2.3750 hc         1 42J       0.071200
     16 H5           3.9780     0.5100    -3.2590 hc         1 42J       0.071200
     17 H6           5.4050    -1.9530    -2.1900 hx         1 42J       0.116200
     18 H7           3.8720    -1.9540    -3.0740 hx         1 42J       0.116200
     19 H8           6.4270    -0.9720    -4.0980 hn         1 42J       0.457467
     20 H9           5.0110    -0.9720    -4.9150 hn         1 42J       0.457467
     21 HN3          5.7190    -2.3870    -4.5060 hn         1 42J       0.457467
@<TRIPOS>BOND
     1     4     3 1   
     2     3     5 ar  
     3     3     2 ar  
     4     5     6 ar  
     5     1     2 1   
     6     2     7 ar  
     7     6     8 ar  
     8     7     8 ar  
     9     8     9 1   
    10    11    10 1   
    11     9    10 1   
    12     5    12 1   
    13     6    13 1   
    14     7    14 1   
    15     9    15 1   
    16     9    16 1   
    17    10    17 1   
    18    10    18 1   
    19    11    19 1   
    20    11    20 1   
    21    21    11 1   
@<TRIPOS>SUBSTRUCTURE
     1 42J         1 TEMP              0 ****  ****    0 ROOT
