@<TRIPOS>MOLECULE
molecule
   37    40     1     0     0
SMALL
bcc


@<TRIPOS>ATOM
      1 N1           0.0000     0.0000     0.0000 ns         1 42K      -0.442100
      2 N2          -0.9750     0.0060     5.4110 na         1 42K      -0.044100
      3 N3           0.3870     0.0050     5.7490 nc         1 42K      -0.116400
      4 N4           1.0930     0.0030     4.6750 nd         1 42K      -0.212400
      5 N6           4.0160    -0.0010     1.0110 nu         1 42K      -0.358700
      6 N7          11.0480    -0.7320     1.7560 nz         1 42K      -0.745500
      7 OAC          9.6420    -0.8010     4.0730 o          1 42K      -0.427800
      8 OAD         10.1460     1.2380     3.4310 o          1 42K      -0.427800
      9 CAE          6.4010    -0.0030     0.4620 ca         1 42K      -0.139000
     10 CAF          5.6340    -0.0010     2.7420 ca         1 42K      -0.139000
     11 CAG          7.7080     0.0040     0.9060 ca         1 42K      -0.001000
     12 CAH          6.9430     0.0110     3.1780 ca         1 42K      -0.001000
     13 CAI         -2.0770     0.0220     3.1140 ca         1 42K      -0.069000
     14 CAJ         -1.8210     0.0160     1.7740 ca         1 42K      -0.114000
     15 CAQ          5.3570    -0.0020     1.3800 ca         1 42K       0.200600
     16 CAR          7.9800     0.0090     2.2630 ca         1 42K      -0.256500
     17 CAS          1.3430     0.0000     0.0000 c          1 42K       0.590200
     18 CAT          1.7940     0.0000     1.4030 cc         1 42K       0.387900
     19 CAU         -1.0340     0.0040     4.0360 ca         1 42K      -0.101200
     20 CAV         -0.5070     0.0070     1.2970 ca         1 42K       0.049600
     21 CAW          0.2980     0.0030     3.5900 ca         1 42K       0.088400
     22 CAX          0.5520     0.0010     2.2040 ca         1 42K      -0.134900
     23 SAY          9.6480     0.0470     2.8240 sy         1 42K       0.934200
     24 H1          -0.5880    -0.1400    -0.7980 hn         1 42K       0.356500
     25 H2          -1.7410    -0.0020     6.0550 hn         1 42K       0.347700
     26 H4          10.8920    -1.7170     1.6690 hn         1 42K       0.455800
     27 H5          11.0470    -0.3130     0.8470 hn         1 42K       0.455800
     28 H6           6.1890    -0.0710    -0.5980 ha         1 42K       0.193000
     29 H7           5.0010     0.8630     2.9040 ha         1 42K       0.193000
     30 H8           8.6230     0.1730     0.3510 ha         1 42K       0.150000
     31 H9           7.0380    -0.3030     4.2110 ha         1 42K       0.150000
     32 H10         -3.0200     0.3430     3.5400 ha         1 42K       0.151000
     33 H11         -2.4720     0.5600     1.1020 ha         1 42K       0.155000
     34 H3           3.6020    -0.8290     0.6300 hn         1 42K       0.436800
     35 N5           3.0330    -0.0010     1.8460 n2         1 42K      -0.427400
     36 OAB          2.0600    -0.0010    -0.9840 o          1 42K      -0.592500
     37 H73         11.9340    -0.3790     2.0580 hn         1 42K       0.455800
@<TRIPOS>BOND
     1     6    23 1   
     2     7    23 2   
     3    23     8 2   
     4    23    16 1   
     5    16    11 ar  
     6    16    12 ar  
     7    11     9 ar  
     8    12    10 ar  
     9     9    15 ar  
    10    10    15 ar  
    11    15     5 1   
    12     3     4 2   
    13     3     2 1   
    14     4    21 1   
    15     5    35 1   
    16    35    18 2   
    17     2    19 1   
    18    21    19 ar  
    19    21    22 ar  
    20    19    13 ar  
    21    18    22 1   
    22    18    17 1   
    23    22    20 ar  
    24    17    36 2   
    25    17     1 1   
    26    13    14 ar  
    27    20    14 ar  
    28    20     1 1   
    29     1    24 1   
    30     2    25 1   
    31     6    26 1   
    32     6    27 1   
    33     9    28 1   
    34    10    29 1   
    35    11    30 1   
    36    12    31 1   
    37    13    32 1   
    38    14    33 1   
    39     5    34 1   
    40    37     6 1   
@<TRIPOS>SUBSTRUCTURE
     1 42K         1 TEMP              0 ****  ****    0 ROOT
