@<TRIPOS>MOLECULE
42K
   37    41     1     0     0
SMALL
bcc


@<TRIPOS>ATOM
      1 N1           0.0000     0.0000     0.0000 ns         1 42K       0.160000
      2 N2          -0.9750     0.0060     5.4110 na         1 42K       0.271000
      3 N3           0.3870     0.0050     5.7490 n2         1 42K      -0.132000
      4 N4           1.0930     0.0030     4.6750 n2         1 42K      -0.025000
      5 N6           4.0160    -0.0010     1.0110 nu         1 42K      -0.303000
      6 N7          10.6170     1.2320     2.2670 nz         1 42K       0.220000
      7 OAC         10.1760    -1.5510     2.4980 o          1 42K      -0.564000
      8 OAD          9.7640    -0.3730     4.3940 o          1 42K      -0.564000
      9 CAE          6.4010    -0.0030     0.4620 ca         1 42K      -0.135000
     10 CAF          5.6340    -0.0010     2.7420 ca         1 42K      -0.135000
     11 CAG          7.7080     0.0040     0.9060 ca         1 42K       0.018000
     12 CAH          6.9430     0.0110     3.1780 ca         1 42K       0.018000
     13 CAI         -2.0770     0.0220     3.1140 ca         1 42K      -0.045000
     14 CAJ         -1.8210     0.0160     1.7740 ca         1 42K      -0.077000
     15 CAQ          5.3570    -0.0020     1.3800 ca         1 42K       0.112000
     16 CAR          7.9800     0.0090     2.2630 ca         1 42K      -0.510000
     17 CAS          1.3430     0.0000     0.0000 c2         1 42K       0.254000
     18 CAT          1.7940     0.0000     1.4030 c2         1 42K      -0.226000
     19 CAU         -1.0340     0.0040     4.0360 ca         1 42K      -0.232000
     20 CAV         -0.5070     0.0070     1.2970 ca         1 42K      -0.073000
     21 CAW          0.2980     0.0030     3.5900 ca         1 42K      -0.084000
     22 CAX          0.5520     0.0010     2.2040 ca         1 42K      -0.056000
     23 SAY          9.6390     0.0230     2.8530 s6         1 42K       1.537000
     24 H1          -0.7120    -0.1300    -0.6910 hn         1 42K       0.107000
     25 H2          -1.7140     0.0840     6.0810 hn         1 42K       0.122000
     26 H4          11.4840     0.8690     2.6120 hn         1 42K       0.111667
     27 H5          10.1590     1.9660     2.7690 hn         1 42K       0.111667
     28 H6           6.2130     0.0830    -0.6010 ha         1 42K       0.147500
     29 H7           4.8380    -0.0040     3.4770 ha         1 42K       0.147500
     30 H8           8.5500    -0.0360     0.2250 ha         1 42K       0.118000
     31 H9           7.1260    -0.0230     4.2450 ha         1 42K       0.118000
     32 H10         -3.0210    -0.0560     3.6400 ha         1 42K       0.115000
     33 H11         -2.7830     0.2010     1.3130 ha         1 42K       0.131000
     34 H3           3.4970    -0.5030     1.7040 DU         1 42K       0.176000
     35 N5           3.0330    -0.0010     1.8460 nu         1 42K       0.375000
     36 OAB          2.0600    -0.0010    -0.9840 o          1 42K      -0.321000
     37 H73         10.8190     1.0790     1.2990 hn         1 42K       0.111667
@<TRIPOS>BOND
     1     1    17 1   
     2     1    20 1   
     3     1    24 1   
     4     2     3 1   
     5     2    19 1   
     6     2    25 1   
     7     3     4 1   
     8     4    21 1   
     9     5    15 1   
    10     5    34 1   
    11     5    35 1   
    12     6    23 1   
    13     6    26 1   
    14     6    27 1   
    15     6    37 1   
    16     7    23 1   
    17     8    23 1   
    18     9    11 1   
    19     9    15 1   
    20     9    28 1   
    21    10    12 1   
    22    10    15 1   
    23    10    29 1   
    24    11    16 1   
    25    11    30 1   
    26    12    16 1   
    27    12    31 1   
    28    13    14 1   
    29    13    19 1   
    30    13    32 1   
    31    14    20 1   
    32    14    33 1   
    33    16    23 1   
    34    17    18 1   
    35    17    36 1   
    36    18    22 1   
    37    18    35 1   
    38    19    21 1   
    39    20    22 1   
    40    21    22 1   
    41    34    35 1   
@<TRIPOS>SUBSTRUCTURE
     1 42K         1 TEMP              0 ****  ****    0 ROOT
