@<TRIPOS>MOLECULE
molecule
   40    42     1     0     0
SMALL
bcc


@<TRIPOS>ATOM
      1 F            0.0000     0.0000     0.0000 f          1 42L      -0.142900
      2 C13          1.3510     0.0000     0.0000 ca         1 42L       0.131900
      3 C12          2.0440     0.0000     1.1990 ca         1 42L      -0.164500
      4 C11          3.4260    -0.0020     1.1980 ca         1 42L      -0.099000
      5 C14          2.0450    -0.0070    -1.1980 ca         1 42L      -0.164500
      6 C15          3.4270    -0.0140    -1.1960 ca         1 42L      -0.099000
      7 C10          4.1170    -0.0020     0.0010 ca         1 42L      -0.103300
      8 C6           5.6230    -0.0090     0.0010 c3         1 42L      -0.013400
      9 C7           6.1390     1.3840    -0.3720 c3         1 42L      -0.091700
     10 C8           5.5270     1.8150    -1.6790 c          1 42L       0.630100
     11 O1           4.5770     2.7630    -1.6960 os         1 42L      -0.431900
     12 C9           4.0330     3.1280    -2.9920 c3         1 42L       0.137700
     13 O            5.8920     1.3070    -2.7130 o          1 42L      -0.517000
     14 C1           7.6690     1.3270    -0.5130 c3         1 42L       0.160500
     15 C5           6.1290    -1.0360    -1.0150 c3         1 42L      -0.069400
     16 C4           7.6590    -0.9290    -1.1120 c3         1 42L       0.154500
     17 C3           8.2250    -0.9200     0.3260 c3         1 42L      -0.118400
     18 C2           8.2300     0.5870     0.7220 c3         1 42L      -0.114400
     19 N            7.9730     0.4210    -1.6520 n3         1 42L      -0.661600
     20 C            9.3870     0.5170    -2.0390 c3         1 42L       0.140100
     21 H1           1.5020     0.0010     2.1370 ha         1 42L       0.144500
     22 H2           3.9680     0.0030     2.1360 ha         1 42L       0.144000
     23 H3           1.5040    -0.0160    -2.1370 ha         1 42L       0.144500
     24 H4           3.9690    -0.0170    -2.1340 ha         1 42L       0.144000
     25 H5           5.9820    -0.2730     0.9890 hc         1 42L       0.067700
     26 H6           5.8720     2.0900     0.4050 hc         1 42L       0.073700
     27 H7           4.7680     3.7020    -3.5430 h1         1 42L       0.047033
     28 H8           3.7860     2.2310    -3.5460 h1         1 42L       0.047033
     29 H9           3.1400     3.7250    -2.8530 h1         1 42L       0.047033
     30 H10          8.1090     2.3090    -0.6400 h1         1 42L       0.077700
     31 H11          5.8550    -2.0330    -0.6910 hc         1 42L       0.062700
     32 H12          5.6890    -0.8350    -1.9840 hc         1 42L       0.062700
     33 H13          8.0880    -1.7200    -1.7150 h1         1 42L       0.074700
     34 H14          9.2320    -1.3200     0.3400 hc         1 42L       0.049700
     35 H15          7.5820    -1.4850     0.9900 hc         1 42L       0.049700
     36 H16          9.2410     0.9170     0.9320 hc         1 42L       0.049700
     37 H17          7.5930     0.7520     1.5820 hc         1 42L       0.049700
     38 H19         10.0120     0.2480    -1.1950 h1         1 42L       0.033700
     39 H20          9.5830    -0.1580    -2.8630 h1         1 42L       0.033700
     40 H21          9.6100     1.5330    -2.3440 h1         1 42L       0.033700
@<TRIPOS>BOND
     1    18    17 1
     2    18    14 1
     3    17    16 1
     4    14    19 1
     5    14     9 1
     6    20    19 1
     7    19    16 1
     8    16    15 1
     9     9     8 1
    10     9    10 1
    11     8    15 1
    12     8     7 1
    13     6     7 ar
    14     6     5 ar
    15    10    11 1
    16    10    13 2
    17     7     4 ar
    18    11    12 1
    19     5     2 ar
    20     4     3 ar
    21     2     3 ar
    22     2     1 1
    23     3    21 1
    24     4    22 1
    25     5    23 1
    26     6    24 1
    27     8    25 1
    28     9    26 1
    29    12    27 1
    30    12    28 1
    31    12    29 1
    32    14    30 1
    33    15    31 1
    34    15    32 1
    35    16    33 1
    36    17    34 1
    37    17    35 1
    38    18    36 1
    39    18    37 1
    40    20    38 1
    41    20    39 1
    42    20    40 1
@<TRIPOS>SUBSTRUCTURE
     1 42L         1 TEMP              0 ****  ****    0 ROOT
