@<TRIPOS>MOLECULE
42L
   40    42     1     0     0
SMALL
bcc


@<TRIPOS>ATOM
      1 F            0.0000     0.0000     0.0000 f          1 42L      -0.129900
      2 C13          1.3510     0.0000     0.0000 ca         1 42L       0.102900
      3 C12          2.0440     0.0000     1.1990 ca         1 42L      -0.128000
      4 C11          3.4260    -0.0020     1.1980 ca         1 42L      -0.079000
      5 C14          2.0450    -0.0070    -1.1980 ca         1 42L      -0.128000
      6 C15          3.4270    -0.0140    -1.1960 ca         1 42L      -0.079000
      7 C10          4.1170    -0.0020     0.0010 ca         1 42L      -0.106300
      8 C6           5.6230    -0.0090     0.0010 c3         1 42L       0.010600
      9 C7           6.1390     1.3840    -0.3720 c3         1 42L      -0.077700
     10 C8           5.5270     1.8150    -1.6790 c          1 42L       0.689100
     11 O1           4.5770     2.7630    -1.6960 os         1 42L      -0.415900
     12 C9           4.0330     3.1280    -2.9920 c3         1 42L       0.262700
     13 O            5.8920     1.3070    -2.7130 o          1 42L      -0.554000
     14 C1           7.6690     1.3270    -0.5130 c3         1 42L       0.139500
     15 C5           6.1290    -1.0360    -1.0150 c3         1 42L      -0.037400
     16 C4           7.6590    -0.9290    -1.1120 c3         1 42L       0.134500
     17 C3           8.2250    -0.9200     0.3260 c3         1 42L      -0.063400
     18 C2           8.2300     0.5870     0.7220 c3         1 42L      -0.060400
     19 N            7.9730     0.4210    -1.6520 n3         1 42L      -0.504600
     20 C            9.3870     0.5170    -2.0390 c3         1 42L       0.180100
     21 H1           1.5020     0.0010     2.1370 ha         1 42L       0.118000
     22 H2           3.9680     0.0030     2.1360 ha         1 42L       0.121000
     23 H3           1.5040    -0.0160    -2.1370 ha         1 42L       0.118000
     24 H4           3.9690    -0.0170    -2.1340 ha         1 42L       0.121000
     25 H5           5.9820    -0.2730     0.9890 hc         1 42L       0.048700
     26 H6           5.8720     2.0900     0.4050 hc         1 42L       0.042700
     27 H7           4.7680     3.7020    -3.5430 h1         1 42L       0.001033
     28 H8           3.7860     2.2310    -3.5460 h1         1 42L       0.001033
     29 H9           3.1400     3.7250    -2.8530 h1         1 42L       0.001033
     30 H10          8.1090     2.3090    -0.6400 h1         1 42L       0.045700
     31 H11          5.8550    -2.0330    -0.6910 hc         1 42L       0.039200
     32 H12          5.6890    -0.8350    -1.9840 hc         1 42L       0.039200
     33 H13          8.0880    -1.7200    -1.7150 h1         1 42L       0.043700
     34 H14          9.2320    -1.3200     0.3400 hc         1 42L       0.024700
     35 H15          7.5820    -1.4850     0.9900 hc         1 42L       0.024700
     36 H16          9.2410     0.9170     0.9320 hc         1 42L       0.023700
     37 H17          7.5930     0.7520     1.5820 hc         1 42L       0.023700
     38 H19         10.0120     0.2480    -1.1950 h1         1 42L       0.002367
     39 H20          9.5830    -0.1580    -2.8630 h1         1 42L       0.002367
     40 H21          9.6100     1.5330    -2.3440 h1         1 42L       0.002367
@<TRIPOS>BOND
     1     1     2 1   
     2     2     3 ar  
     3     2     5 ar  
     4     3     4 ar  
     5     3    21 1   
     6     4     7 ar  
     7     4    22 1   
     8     5     6 ar  
     9     5    23 1   
    10     6     7 ar  
    11     6    24 1   
    12     7     8 1   
    13     8     9 1   
    14     8    15 1   
    15     8    25 1   
    16     9    10 1   
    17     9    14 1   
    18     9    26 1   
    19    10    11 1   
    20    10    13 2   
    21    11    12 1   
    22    12    27 1   
    23    12    28 1   
    24    12    29 1   
    25    14    18 1   
    26    14    19 1   
    27    14    30 1   
    28    15    16 1   
    29    15    31 1   
    30    15    32 1   
    31    16    17 1   
    32    16    19 1   
    33    16    33 1   
    34    17    18 1   
    35    17    34 1   
    36    17    35 1   
    37    18    36 1   
    38    18    37 1   
    39    19    20 1   
    40    20    38 1   
    41    20    39 1   
    42    20    40 1   
@<TRIPOS>SUBSTRUCTURE
     1 42L         1 TEMP              0 ****  ****    0 ROOT
