@<TRIPOS>MOLECULE
molecule
   37    38     1     0     0
SMALL
bcc


@<TRIPOS>ATOM
      1 CAA          0.0000     0.0000     0.0000 c3         1 42M       0.120700
      2 OAN          1.4290     0.0000     0.0000 os         1 42M      -0.349900
      3 CAR          2.0460     0.0000     1.2120 ca         1 42M       0.161100
      4 CAK          1.2930    -0.0010     2.3760 ca         1 42M      -0.188000
      5 CAP          1.9220    -0.0010     3.6060 ca         1 42M       0.023700
      6 CAM          1.1000    -0.0010     4.8700 c3         1 42M       0.175700
      7 OAD          0.8420    -1.3480     5.2690 oh         1 42M      -0.593800
      8 CAG          3.3030    -0.0010     3.6810 ca         1 42M      -0.122000
      9 CAI          4.0610    -0.0020     2.5250 ca         1 42M      -0.071000
     10 CAS          3.4360    -0.0060     1.2880 ca         1 42M      -0.066900
     11 OAO          4.1800    -0.0120     0.1500 os         1 42M      -0.097200
     12 CAT          4.3710     1.1620    -0.4890 ca         1 42M       0.330100
     13 CAJ          3.9130     2.3480     0.0810 ca         1 42M      -0.187000
     14 CAH          4.1010     3.5390    -0.5530 ca         1 42M       0.043000
     15 CAQ          4.7610     3.5920    -1.7990 ca         1 42M      -0.240200
     16 NAV          4.9400     4.7710    -2.4140 nh         1 42M       0.614400
     17 OAE          4.5320     5.7960    -1.8970 oh         1 42M      -0.331200
     18 OAB          5.5100     4.8170    -3.4900 o          1 42M      -0.196000
     19 CAL          5.2290     2.4130    -2.3930 ca         1 42M       0.129000
     20 CAU          5.0410     1.1900    -1.7370 ca         1 42M      -0.247200
     21 NAW          5.4880     0.0520    -2.2890 nh         1 42M       0.605400
     22 OAF          6.0640     0.0810    -3.3610 oh         1 42M      -0.353200
     23 OAC          5.3190    -1.0100    -1.7160 o          1 42M      -0.141000
     24 HAA1        -0.3610    -0.8980     0.4860 h1         1 42M       0.065367
     25 HAA2        -0.3610     0.0280    -1.0210 h1         1 42M       0.065367
     26 HAA3        -0.3610     0.8700     0.5350 h1         1 42M       0.065367
     27 HAK          0.2110    -0.0210     2.3200 ha         1 42M       0.178000
     28 HAM1         1.6450     0.5100     5.6540 h1         1 42M       0.046200
     29 HAM2         0.1620     0.5090     4.6900 h1         1 42M       0.046200
     30 HAG          3.7920     0.0000     4.6470 ha         1 42M       0.178000
     31 HAD          0.3280    -1.3490     6.0600 ho         1 42M       0.433000
     32 HAI          5.1420    -0.0040     2.5870 ha         1 42M       0.162000
     33 HAJ          3.4050     2.3230     1.0380 ha         1 42M       0.228000
     34 HAH          3.7400     4.4530    -0.0970 ha         1 42M       0.208000
     35 HAL          5.7380     2.4480    -3.3490 ha         1 42M       0.222000
     36 HAF          6.3120    -0.7950    -3.6090 ho         1 42M       0.542000
     37 HAE          4.7380     6.5310    -2.4500 ho         1 42M       0.540000
@<TRIPOS>BOND
     1     1     2 1   
     2     2     3 1   
     3     3     4 ar  
     4     3    10 ar  
     5     4     5 ar  
     6     5     6 1   
     7     5     8 ar  
     8     6     7 1   
     9     8     9 ar  
    10     9    10 ar  
    11    10    11 1   
    12    11    12 1   
    13    12    13 ar  
    14    12    20 ar  
    15    13    14 ar  
    16    14    15 ar  
    17    15    16 1   
    18    15    19 ar  
    19    16    17 1   
    20    16    18 2   
    21    19    20 ar  
    22    20    21 1   
    23    21    22 1   
    24    21    23 2   
    25    22    36 1   
    26    17    37 1   
    27     1    24 1   
    28     1    25 1   
    29     1    26 1   
    30     4    27 1   
    31     6    28 1   
    32     6    29 1   
    33     8    30 1   
    34     7    31 1   
    35     9    32 1   
    36    13    33 1   
    37    14    34 1   
    38    19    35 1   
@<TRIPOS>SUBSTRUCTURE
     1 42M         1 TEMP              0 ****  ****    0 ROOT
