@<TRIPOS>MOLECULE
42M
   37    38     1     0     0
SMALL
bcc


@<TRIPOS>ATOM
      1 CAA          0.0000     0.0000     0.0000 c3         1 42M       0.060000
      2 OAN          1.4290     0.0000     0.0000 os         1 42M      -0.221000
      3 CAR          2.0460     0.0000     1.2120 ca         1 42M       0.119000
      4 CAK          1.2930    -0.0010     2.3760 ca         1 42M      -0.166000
      5 CAP          1.9220    -0.0010     3.6060 ca         1 42M       0.018000
      6 CAM          1.1000    -0.0010     4.8700 c3         1 42M       0.112000
      7 OAD          0.8420    -1.3480     5.2690 oh         1 42M      -0.307000
      8 CAG          3.3030    -0.0010     3.6810 ca         1 42M      -0.087000
      9 CAI          4.0610    -0.0020     2.5250 ca         1 42M      -0.046000
     10 CAS          3.4360    -0.0060     1.2880 ca         1 42M      -0.121000
     11 OAO          4.1800    -0.0120     0.1500 os         1 42M       0.022000
     12 CAT          4.3710     1.1620    -0.4890 ca         1 42M       0.338000
     13 CAJ          3.9130     2.3480     0.0810 ca         1 42M      -0.185000
     14 CAH          4.1010     3.5390    -0.5530 ca         1 42M       0.119000
     15 CAQ          4.7610     3.5920    -1.7990 ca         1 42M      -0.531000
     16 NAV          4.9400     4.7710    -2.4140 nh         1 42M       1.302000
     17 OAE          4.5320     5.7960    -1.8970 oh         1 42M      -0.293000
     18 OAB          5.5100     4.8170    -3.4900 o          1 42M      -0.462000
     19 CAL          5.2290     2.4130    -2.3930 ca         1 42M       0.241000
     20 CAU          5.0410     1.1900    -1.7370 ca         1 42M      -0.542000
     21 NAW          5.4880     0.0520    -2.2890 nh         1 42M       1.287000
     22 OAF          6.0640     0.0810    -3.3610 oh         1 42M      -0.311000
     23 OAC          5.3190    -1.0100    -1.7160 o          1 42M      -0.418000
     24 HAA1        -0.3610    -0.8990     0.4860 h1         1 42M       0.055333
     25 HAA2        -0.3610     0.0290    -1.0210 h1         1 42M       0.055333
     26 HAA3        -0.3610     0.8700     0.5350 h1         1 42M       0.055333
     27 HAK          0.2110    -0.0210     2.3200 ha         1 42M       0.153000
     28 HAM1         1.6450     0.5100     5.6540 h1         1 42M       0.041500
     29 HAM2         0.1620     0.5090     4.6900 h1         1 42M       0.041500
     30 HAG          3.7920     0.0000     4.6470 ha         1 42M       0.141000
     31 HAD          0.3310    -1.3490     6.0620 ho         1 42M       0.216000
     32 HAI          5.1420    -0.0040     2.5870 ha         1 42M       0.123000
     33 HAJ          3.4050     2.3230     1.0380 ha         1 42M       0.189000
     34 HAH          3.7400     4.4530    -0.0970 ha         1 42M       0.154000
     35 HAL          5.7380     2.4480    -3.3490 ha         1 42M       0.168000
     36 HAF          6.3120    -0.7950    -3.6090 ho         1 42M       0.341000
     37 HAE          4.7370     6.5310    -2.4510 ho         1 42M       0.338000
@<TRIPOS>BOND
     1     1     2 1   
     2     1    24 1   
     3     1    25 1   
     4     1    26 1   
     5     2     3 1   
     6     3     4 1   
     7     3    10 1   
     8     4     5 1   
     9     4    27 1   
    10     5     6 1   
    11     5     8 1   
    12     6     7 1   
    13     6    28 1   
    14     6    29 1   
    15     7    31 1   
    16     8     9 1   
    17     8    30 1   
    18     9    10 1   
    19     9    32 1   
    20    10    11 1   
    21    11    12 1   
    22    12    13 1   
    23    12    20 1   
    24    13    14 1   
    25    13    33 1   
    26    14    15 1   
    27    14    34 1   
    28    15    16 1   
    29    15    19 1   
    30    16    17 1   
    31    16    18 1   
    32    17    37 1   
    33    19    20 1   
    34    19    35 1   
    35    20    21 1   
    36    21    22 1   
    37    21    23 1   
    38    22    36 1   
@<TRIPOS>SUBSTRUCTURE
     1 42M         1 TEMP              0 ****  ****    0 ROOT
