@<TRIPOS>MOLECULE
molecule
   45    49     1     0     0
SMALL
bcc


@<TRIPOS>ATOM
      1 O01          0.0000     0.0000     0.0000 o          1 42O      -0.812800
      2 C02          1.2080     0.0000     0.0000 c          1 42O       0.891600
      3 C04          1.9610     0.0000     1.3060 c3         1 42O      -0.031300
      4 C05          2.8050    -1.2680     1.3880 c3         1 42O       0.031700
      5 C07          0.9950    -0.8880     3.3140 cc         1 42O       0.227200
      6 C08          0.1260    -0.8750     4.3930 cd         1 42O      -0.193200
      7 C09          0.1460    -2.0080     5.3860 cx         1 42O      -0.062500
      8 C10         -1.0750    -2.9290     5.4320 cx         1 42O      -0.145400
      9 C11          0.2410    -3.4310     4.8310 cx         1 42O      -0.145400
     10 C12         -0.7650     0.1790     4.5660 cd         1 42O       0.019800
     11 C13         -1.7140     0.2030     5.7360 c3         1 42O       0.000100
     12 C14         -1.0220     0.8060     6.9310 ca         1 42O      -0.044300
     13 C15         -0.4140     0.0040     7.8470 ca         1 42O      -0.132000
     14 C16          0.2310     0.5440     8.9580 ca         1 42O      -0.123000
     15 C17          0.2710     1.8890     9.1600 ca         1 42O      -0.130000
     16 C18         -0.3450     2.7500     8.2360 ca         1 42O      -0.032000
     17 C19         -0.3260     4.1440     8.4110 ca         1 42O      -0.127000
     18 C20         -0.9330     4.9470     7.4960 ca         1 42O      -0.126000
     19 C21         -1.5790     4.4060     6.3840 ca         1 42O      -0.132000
     20 O03          1.8790    -0.0070    -1.1630 o          1 42O      -0.812800
     21 S06          2.2090    -2.1050     2.8870 ss         1 42O      -0.306700
     22 C22         -1.6190     3.0610     6.1820 ca         1 42O      -0.102000
     23 C23         -0.9970     2.2010     7.1030 ca         1 42O      -0.028000
     24 C24         -0.7580     1.2010     3.6390 cc         1 42O      -0.285200
     25 C25          0.1280     1.1540     2.5680 c          1 42O       0.706700
     26 O26          0.1260     2.0650     1.7540 o          1 42O      -0.628500
     27 N27          1.0020     0.1170     2.4030 n          1 42O      -0.275000
     28 H041         2.6220     0.8580     1.3310 h1         1 42O       0.083700
     29 H052         3.8500    -1.0060     1.5060 h1         1 42O       0.090200
     30 H051         2.6170    -1.8910     0.5220 h1         1 42O       0.090200
     31 H091         0.6390    -1.8590     6.3400 hc         1 42O       0.074700
     32 H101        -1.8580    -2.7040     4.7190 hc         1 42O       0.074700
     33 H102        -1.3240    -3.3270     6.4090 hc         1 42O       0.074700
     34 H112         0.7950    -4.1340     5.4410 hc         1 42O       0.074700
     35 H111         0.2610    -3.5110     3.7510 hc         1 42O       0.074700
     36 H131        -2.0250    -0.8080     5.9710 hc         1 42O       0.058700
     37 H132        -2.5840     0.7980     5.4840 hc         1 42O       0.058700
     38 H151        -0.4310    -1.0710     7.7100 ha         1 42O       0.135000
     39 H161         0.7070    -0.1170     9.6710 ha         1 42O       0.119000
     40 H171         0.7760     2.2940    10.0280 ha         1 42O       0.123000
     41 H191         0.1720     4.5780     9.2700 ha         1 42O       0.123000
     42 H201        -0.9160     6.0210     7.6330 ha         1 42O       0.120000
     43 H211        -2.0550     5.0670     5.6700 ha         1 42O       0.129000
     44 H221        -2.1240     2.6560     5.3140 ha         1 42O       0.148000
     45 H241        -1.5120     1.9780     3.6850 ha         1 42O       0.148000
@<TRIPOS>BOND
     1    18    17 ar  
     2    18    19 ar  
     3    17    16 ar  
     4    19    22 ar  
     5    16    15 ar  
     6    16    23 ar  
     7    15    14 ar  
     8    26    25 2   
     9    22    23 ar  
    10    23    12 ar  
    11    14    13 ar  
    12    25    24 1   
    13    25    27 1   
    14    24    10 2   
    15    12    13 ar  
    16    12    11 1   
    17     1     2 1   
    18     2     3 1   
    19     2    20 1   
    20    27     3 1   
    21    27     5 1   
    22     3     4 1   
    23    10    11 1   
    24    10     6 1   
    25     5     6 2   
    26     5    21 1   
    27     6     7 1   
    28     4    21 1   
    29     7     8 1   
    30     7     9 1   
    31     8     9 1   
    32     3    28 1   
    33     4    29 1   
    34     4    30 1   
    35     7    31 1   
    36     8    32 1   
    37     8    33 1   
    38     9    34 1   
    39     9    35 1   
    40    11    36 1   
    41    11    37 1   
    42    13    38 1   
    43    14    39 1   
    44    15    40 1   
    45    17    41 1   
    46    18    42 1   
    47    19    43 1   
    48    22    44 1   
    49    24    45 1   
@<TRIPOS>SUBSTRUCTURE
     1 42O         1 TEMP              0 ****  ****    0 ROOT
