@<TRIPOS>MOLECULE
42P
   58    61     1     0     0
SMALL
bcc


@<TRIPOS>ATOM
      1 C01          0.0000     0.0000     0.0000 ca         1 42P       0.633200
      2 N02          1.3270     0.0000     0.0000 nb         1 42P      -0.753000
      3 C03          2.0060     0.0000     1.1380 ca         1 42P       0.778900
      4 N04          1.4010    -0.0000     2.3180 nb         1 42P      -0.741000
      5 C05          0.0810    -0.0000     2.4080 ca         1 42P       0.522300
      6 C06         -0.6800    -0.0000     1.2350 ca         1 42P      -0.507500
      7 N07         -0.7040     0.0060    -1.1890 nu         1 42P      -0.498900
      8 N08          3.3880    -0.0010     1.0940 nu         1 42P      -0.470900
      9 Cl9         -0.6950    -0.0020     3.9610 cl         1 42P      -0.029000
     10 C10         -2.1550    -0.0000     1.2880 cc         1 42P       0.525800
     11 C11          0.0160     0.0130    -2.4660 c3         1 42P       0.123500
     12 C12          0.3640    -1.4310    -2.9070 c3         1 42P       0.162100
     13 C13          0.5280    -1.3290    -4.4380 c3         1 42P       0.161100
     14 C14         -0.2760    -0.0960    -4.8840 c3         1 42P      -0.085700
     15 C15         -0.9010     0.5090    -3.6100 c3         1 42P      -0.021400
     16 O16          1.5850    -1.8590    -2.3000 oh         1 42P      -0.542800
     17 O17          1.9070    -1.1610    -4.7720 oh         1 42P      -0.554800
     18 C18         -1.3770    -0.5150    -5.8620 c3         1 42P       0.230400
     19 O19         -2.0410     0.6490    -6.3590 oh         1 42P      -0.589800
     20 C20          4.1600    -0.0010     2.3380 c3         1 42P       0.164800
     21 C21          5.6540    -0.0020     2.0100 c3         1 42P      -0.049400
     22 C22          6.4620    -0.0010     3.3110 c3         1 42P       0.217400
     23 O23          7.8580    -0.0020     3.0050 os         1 42P      -0.419600
     24 C24          8.7050    -0.0030     4.1560 c3         1 42P       0.256700
     25 S25         -3.1060     0.0000     2.7670 ss         1 42P      -0.217100
     26 C26         -4.5950     0.0010     1.8250 ca         1 42P      -0.039100
     27 C27         -4.2590     0.0010     0.4660 ca         1 42P       0.084400
     28 N28         -2.9300     0.0060     0.2560 nd         1 42P      -0.507100
     29 C29         -5.9310    -0.0040     2.2200 ca         1 42P      -0.039000
     30 C30         -6.9330    -0.0080     1.2750 ca         1 42P      -0.102000
     31 C31         -6.6140    -0.0080    -0.0750 ca         1 42P      -0.094000
     32 C32         -5.3040     0.0020    -0.4830 ca         1 42P      -0.060000
     33 H1          -1.7040     0.0460    -1.1790 hn         1 42P       0.350800
     34 H2           3.8600     0.0240     0.2120 hn         1 42P       0.308800
     35 H3           0.9120     0.6190    -2.4050 h1         1 42P       0.077700
     36 H4          -0.4460    -2.1060    -2.6590 h1         1 42P       0.008700
     37 H5           0.1320    -2.2190    -4.9110 h1         1 42P      -0.003300
     38 H6           0.3840     0.6260    -5.3490 hc         1 42P       0.060700
     39 H7          -0.8900     1.5910    -3.6610 hc         1 42P       0.029200
     40 H8          -1.9100     0.1390    -3.4720 hc         1 42P       0.029200
     41 H9           1.6140    -2.8020    -2.2830 ho         1 42P       0.376000
     42 H10          2.1410    -1.7680    -5.4550 ho         1 42P       0.381000
     43 H11         -0.9380    -1.0600    -6.6880 h1         1 42P      -0.014300
     44 H12         -2.0920    -1.1480    -5.3500 h1         1 42P      -0.014300
     45 H13         -2.4450     0.4500    -7.1870 ho         1 42P       0.390000
     46 H14          3.9170     0.8840     2.9140 h1         1 42P       0.026200
     47 H15          3.9160    -0.8860     2.9140 h1         1 42P       0.026200
     48 H16          5.8980     0.8820     1.4340 hc         1 42P       0.027200
     49 H17          5.8970    -0.8870     1.4350 hc         1 42P       0.027200
     50 H18          6.2170    -0.8850     3.8880 h1         1 42P      -0.007300
     51 H19          6.2190     0.8840     3.8860 h1         1 42P      -0.007300
     52 H20          8.5090    -0.8880     4.7480 h1         1 42P      -0.012967
     53 H21          9.7410     0.0000     3.8420 h1         1 42P      -0.012967
     54 H22          8.5060     0.8810     4.7510 h1         1 42P      -0.012967
     55 H23         -6.1820    -0.0040     3.2730 ha         1 42P       0.110000
     56 H24         -7.9700    -0.0160     1.5860 ha         1 42P       0.107000
     57 H25         -7.4060    -0.0110    -0.8140 ha         1 42P       0.105000
     58 H26         -5.0700     0.0020    -1.5410 ha         1 42P       0.108000
@<TRIPOS>BOND
     1     1     2 ar  
     2     1     6 ar  
     3     1     7 1   
     4     2     3 ar  
     5     3     4 ar  
     6     3     8 1   
     7     4     5 ar  
     8     5     6 ar  
     9     5     9 1   
    10     6    10 1   
    11     7    11 1   
    12     7    33 1   
    13     8    20 1   
    14     8    34 1   
    15    10    25 1   
    16    10    28 2   
    17    11    12 1   
    18    11    15 1   
    19    11    35 1   
    20    12    13 1   
    21    12    16 1   
    22    12    36 1   
    23    13    14 1   
    24    13    17 1   
    25    13    37 1   
    26    14    15 1   
    27    14    18 1   
    28    14    38 1   
    29    15    39 1   
    30    15    40 1   
    31    16    41 1   
    32    17    42 1   
    33    18    19 1   
    34    18    43 1   
    35    18    44 1   
    36    19    45 1   
    37    20    21 1   
    38    20    46 1   
    39    20    47 1   
    40    21    22 1   
    41    21    48 1   
    42    21    49 1   
    43    22    23 1   
    44    22    50 1   
    45    22    51 1   
    46    23    24 1   
    47    24    52 1   
    48    24    53 1   
    49    24    54 1   
    50    25    26 1   
    51    26    27 ar  
    52    26    29 ar  
    53    27    28 1   
    54    27    32 ar  
    55    29    30 ar  
    56    29    55 1   
    57    30    31 ar  
    58    30    56 1   
    59    31    32 ar  
    60    31    57 1   
    61    32    58 1   
@<TRIPOS>SUBSTRUCTURE
     1 42P         1 TEMP              0 ****  ****    0 ROOT
