@<TRIPOS>MOLECULE
molecule
   58    61     1     0     0
SMALL
bcc


@<TRIPOS>ATOM
      1 C01          0.0000     0.0000     0.0000 ca         1 42P       0.810200
      2 N02          1.3270     0.0000     0.0000 nb         1 42P      -0.847000
      3 C03          2.0060     0.0000     1.1380 ca         1 42P       1.005900
      4 N04          1.4010    -0.0000     2.3180 nb         1 42P      -0.841000
      5 C05          0.0810    -0.0000     2.4080 ca         1 42P       0.637300
      6 C06         -0.6800    -0.0000     1.2350 ca         1 42P      -0.486500
      7 N07         -0.7040     0.0060    -1.1890 nu         1 42P      -0.881900
      8 N08          3.3880    -0.0010     1.0940 nu         1 42P      -0.884900
      9 Cl9         -0.6950    -0.0020     3.9610 cl         1 42P      -0.123000
     10 C10         -2.1550    -0.0000     1.2880 cc         1 42P       0.521800
     11 C11          0.0160     0.0130    -2.4660 c3         1 42P       0.239500
     12 C12          0.3640    -1.4310    -2.9070 c3         1 42P       0.125100
     13 C13          0.5280    -1.3290    -4.4380 c3         1 42P       0.115100
     14 C14         -0.2760    -0.0960    -4.8840 c3         1 42P      -0.092700
     15 C15         -0.9010     0.5090    -3.6100 c3         1 42P      -0.080400
     16 O16          1.5850    -1.8590    -2.3000 oh         1 42P      -0.562800
     17 O17          1.9070    -1.1610    -4.7720 oh         1 42P      -0.576800
     18 C18         -1.3770    -0.5150    -5.8620 c3         1 42P       0.144400
     19 O19         -2.0410     0.6490    -6.3590 oh         1 42P      -0.606800
     20 C20          4.1600    -0.0010     2.3380 c3         1 42P       0.244800
     21 C21          5.6540    -0.0020     2.0100 c3         1 42P      -0.103400
     22 C22          6.4620    -0.0010     3.3110 c3         1 42P       0.142400
     23 O23          7.8580    -0.0020     3.0050 os         1 42P      -0.430600
     24 C24          8.7050    -0.0030     4.1560 c3         1 42P       0.130700
     25 S25         -3.1060     0.0000     2.7670 ss         1 42P      -0.094100
     26 C26         -4.5950     0.0010     1.8250 ca         1 42P      -0.078100
     27 C27         -4.2590     0.0010     0.4660 ca         1 42P       0.132400
     28 N28         -2.9300     0.0060     0.2560 nd         1 42P      -0.639100
     29 C29         -5.9310    -0.0040     2.2200 ca         1 42P      -0.081000
     30 C30         -6.9330    -0.0080     1.2750 ca         1 42P      -0.127000
     31 C31         -6.6140    -0.0080    -0.0750 ca         1 42P      -0.124000
     32 C32         -5.3040     0.0020    -0.4830 ca         1 42P      -0.088000
     33 H1          -1.7040     0.0460    -1.1790 hn         1 42P       0.493800
     34 H2           3.8600     0.0240     0.2120 hn         1 42P       0.467800
     35 H3           0.9120     0.6190    -2.4050 h1         1 42P       0.106700
     36 H4          -0.4460    -2.1060    -2.6590 h1         1 42P       0.044700
     37 H5           0.1320    -2.2190    -4.9110 h1         1 42P       0.028700
     38 H6           0.3840     0.6260    -5.3490 hc         1 42P       0.088700
     39 H7          -0.8900     1.5910    -3.6610 hc         1 42P       0.061200
     40 H8          -1.9100     0.1390    -3.4720 hc         1 42P       0.061200
     41 H9           1.6140    -2.8020    -2.2830 ho         1 42P       0.391000
     42 H10          2.1410    -1.7680    -5.4550 ho         1 42P       0.396000
     43 H11         -0.9380    -1.0600    -6.6880 h1         1 42P       0.022200
     44 H12         -2.0920    -1.1480    -5.3500 h1         1 42P       0.022200
     45 H13         -2.4450     0.4500    -7.1870 ho         1 42P       0.403000
     46 H14          3.9170     0.8840     2.9140 h1         1 42P       0.053700
     47 H15          3.9160    -0.8860     2.9140 h1         1 42P       0.053700
     48 H16          5.8980     0.8820     1.4340 hc         1 42P       0.060200
     49 H17          5.8970    -0.8870     1.4350 hc         1 42P       0.060200
     50 H18          6.2170    -0.8850     3.8880 h1         1 42P       0.026700
     51 H19          6.2190     0.8840     3.8860 h1         1 42P       0.026700
     52 H20          8.5090    -0.8880     4.7480 h1         1 42P       0.030700
     53 H21          9.7410     0.0000     3.8420 h1         1 42P       0.030700
     54 H22          8.5060     0.8810     4.7510 h1         1 42P       0.030700
     55 H23         -6.1820    -0.0040     3.2730 ha         1 42P       0.135000
     56 H24         -7.9700    -0.0160     1.5860 ha         1 42P       0.134000
     57 H25         -7.4060    -0.0110    -0.8140 ha         1 42P       0.134000
     58 H26         -5.0700     0.0020    -1.5410 ha         1 42P       0.138000
@<TRIPOS>BOND
     1    30    31 ar  
     2    30    29 ar  
     3    31    32 ar  
     4    29    26 ar  
     5    32    27 ar  
     6    26    27 ar  
     7    26    25 1   
     8    27    28 1   
     9    25    10 1   
    10    28    10 2   
    11    10     6 1   
    12     9     5 1   
    13     6     5 ar  
    14     6     1 ar  
    15     5     4 ar  
    16     7     1 1   
    17     7    11 1   
    18    18    19 1   
    19    18    14 1   
    20     1     2 ar  
    21    15    11 1   
    22    15    14 1   
    23     4     3 ar  
    24    11    12 1   
    25    14    13 1   
    26     2     3 ar  
    27     3     8 1   
    28    13    12 1   
    29    13    17 1   
    30    12    16 1   
    31     8    20 1   
    32    20    21 1   
    33    21    22 1   
    34    22    23 1   
    35    23    24 1   
    36     7    33 1   
    37     8    34 1   
    38    11    35 1   
    39    12    36 1   
    40    13    37 1   
    41    14    38 1   
    42    15    39 1   
    43    15    40 1   
    44    16    41 1   
    45    17    42 1   
    46    18    43 1   
    47    18    44 1   
    48    19    45 1   
    49    20    46 1   
    50    20    47 1   
    51    21    48 1   
    52    21    49 1   
    53    22    50 1   
    54    22    51 1   
    55    24    52 1   
    56    24    53 1   
    57    24    54 1   
    58    29    55 1   
    59    30    56 1   
    60    31    57 1   
    61    32    58 1   
@<TRIPOS>SUBSTRUCTURE
     1 42P         1 TEMP              0 ****  ****    0 ROOT
