@<TRIPOS>MOLECULE
molecule
   47    50     1     0     0
SMALL
bcc


@<TRIPOS>ATOM
      1 C1           0.0000     0.0000     0.0000 ca         1 42Q       0.471100
      2 N2           1.3350     0.0000     0.0000 nb         1 42Q      -0.720000
      3 C3           2.0000     0.0000     1.1350 ca         1 42Q       0.685900
      4 N4           1.3950    -0.0010     2.3090 nb         1 42Q      -0.798000
      5 C5           0.0700    -0.0000     2.4040 ca         1 42Q       0.684600
      6 C6          -0.6850    -0.0000     1.2300 ca         1 42Q      -0.293800
      7 N8          -2.0310    -0.0000     0.9460 na         1 42Q      -0.050400
      8 C9          -2.2200    -0.0000    -0.4050 cc         1 42Q      -0.077100
      9 C10         -1.0290     0.0060    -1.0340 cd         1 42Q      -0.316800
     10 C11         -3.1020    -0.0000     1.9460 c3         1 42Q       0.038600
     11 O17         -0.5360    -0.0010     3.6160 os         1 42Q      -0.365400
     12 C18          0.2480    -0.1030     4.7220 ca         1 42Q       0.115100
     13 C19          0.9530     1.0030     5.1750 ca         1 42Q      -0.113000
     14 C20          1.7500     0.9010     6.3000 ca         1 42Q      -0.105000
     15 C21          1.8470    -0.3070     6.9760 ca         1 42Q       0.039600
     16 C22          1.1400    -1.4150     6.5210 ca         1 42Q       0.099900
     17 C23          0.3380    -1.3100     5.4000 ca         1 42Q      -0.149000
     18 N27          2.6560    -0.4100     8.1160 ns         1 42Q      -0.479100
     19 C28          2.8670     0.6710     8.8930 c          1 42Q       0.787100
     20 N29          3.5650     0.5510    10.0400 ns         1 42Q      -0.487100
     21 C30          3.7050     1.6530    10.8910 ca         1 42Q       0.066600
     22 O31          2.4280     1.7550     8.5590 o          1 42Q      -0.635100
     23 F34          1.2320    -2.5920     7.1780 f          1 42Q      -0.143900
     24 C35          3.7100     1.4710    12.2680 ca         1 42Q      -0.136000
     25 C36          3.8500     2.5600    13.1060 ca         1 42Q      -0.116000
     26 C37          3.9830     3.8300    12.5760 ca         1 42Q      -0.100000
     27 C38          3.9780     4.0130    11.2050 ca         1 42Q      -0.164300
     28 C39          3.8450     2.9280    10.3610 ca         1 42Q      -0.079000
     29 C44          4.1230     5.3990    10.6320 c3         1 42Q       0.675200
     30 F45          4.2460     6.3250    11.6730 f          1 42Q      -0.222300
     31 F46          5.2620     5.4520     9.8230 f          1 42Q      -0.222300
     32 F47          2.9920     5.7080     9.8660 f          1 42Q      -0.222300
     33 H3           3.0830    -0.0000     1.1050 h5         1 42Q       0.062100
     34 H9          -3.1840    -0.0050    -0.8980 h4         1 42Q       0.173000
     35 H10         -0.8670     0.0070    -2.1050 ha         1 42Q       0.170000
     36 H11         -3.0170    -0.8850     2.5660 h1         1 42Q       0.055367
     37 H11A        -4.0630    -0.0000     1.4460 h1         1 42Q       0.055367
     38 H11B        -3.0170     0.8850     2.5650 h1         1 42Q       0.055367
     39 H19          0.8790     1.9460     4.6480 ha         1 42Q       0.153000
     40 H20          2.3000     1.7650     6.6530 ha         1 42Q       0.190000
     41 H23         -0.2130    -2.1730     5.0450 ha         1 42Q       0.157000
     42 HN27         3.0710    -1.2880     8.3570 hn         1 42Q       0.328500
     43 HN29         3.9680    -0.3290    10.2910 hn         1 42Q       0.324500
     44 H35          3.6060     0.4760    12.6840 ha         1 42Q       0.135000
     45 H36          3.8540     2.4180    14.1800 ha         1 42Q       0.141000
     46 H37          4.0890     4.6830    13.2360 ha         1 42Q       0.151000
     47 H39          3.8410     3.0730     9.2880 ha         1 42Q       0.179000
@<TRIPOS>BOND
     1     1     2 ar  
     2     1     6 ar  
     3     1     9 1   
     4     2     3 ar  
     5     3     4 ar  
     6     4     5 ar  
     7     5     6 ar  
     8     5    11 1   
     9     6     7 1   
    10     7     8 1   
    11     7    10 1   
    12     8     9 2   
    13    11    12 1   
    14    12    13 ar  
    15    12    17 ar  
    16    13    14 ar  
    17    14    15 ar  
    18    15    16 ar  
    19    15    18 1   
    20    16    17 ar  
    21    16    23 1   
    22    18    19 1   
    23    19    20 1   
    24    19    22 2   
    25    20    21 1   
    26    21    24 ar  
    27    21    28 ar  
    28    24    25 ar  
    29    25    26 ar  
    30    26    27 ar  
    31    27    28 ar  
    32    27    29 1   
    33    29    30 1   
    34    29    31 1   
    35    29    32 1   
    36     3    33 1   
    37     8    34 1   
    38     9    35 1   
    39    10    36 1   
    40    10    37 1   
    41    10    38 1   
    42    13    39 1   
    43    14    40 1   
    44    17    41 1   
    45    18    42 1   
    46    20    43 1   
    47    24    44 1   
    48    25    45 1   
    49    26    46 1   
    50    28    47 1   
@<TRIPOS>SUBSTRUCTURE
     1 42Q         1 TEMP              0 ****  ****    0 ROOT
