@<TRIPOS>MOLECULE
42R
   31    32     1     0     0
SMALL
bcc


@<TRIPOS>ATOM
      1 C1           0.0000     0.0000     0.0000 c3         1 42R       0.205100
      2 N1           1.4650     0.0000     0.0000 nh         1 42R      -0.347400
      3 C2           2.2220     0.0000     1.2610 c3         1 42R       0.181800
      4 C3           3.2210     1.1620     1.2210 c3         1 42R       0.058800
      5 C4           4.1840     1.0500     2.4050 c3         1 42R      -0.019100
      6 O1           2.5150     2.4030     1.2940 oh         1 42R      -0.579800
      7 C5           4.0010     1.1020    -0.0680 c          1 42R       0.607300
      8 O2           5.1290     1.5530    -0.1100 o          1 42R      -0.585100
      9 C6           3.4410     0.5340    -1.2120 ce         1 42R      -0.373200
     10 C7           2.1720    -0.0050    -1.1820 cf         1 42R       0.144800
     11 C8           1.5820    -0.5910    -2.4020 ca         1 42R      -0.071800
     12 C9           0.9530    -1.8370    -2.3490 ca         1 42R      -0.074500
     13 C10          0.4030    -2.3770    -3.4920 ca         1 42R      -0.084500
     14 C11          0.4740    -1.6880    -4.6910 ca         1 42R       0.042100
     15 Br1         -0.2830    -2.4370    -6.2540 br         1 42R      -0.124100
     16 C12          1.0960    -0.4520    -4.7510 ca         1 42R      -0.084500
     17 C13          1.6440     0.1020    -3.6130 ca         1 42R      -0.074500
     18 H1          -0.3610    -1.0110     0.1480 h1         1 42R       0.012033
     19 H2          -0.3610     0.6330     0.8010 h1         1 42R       0.012033
     20 H3          -0.3610     0.3780    -0.9490 h1         1 42R       0.012033
     21 H4           1.5420     0.1330     2.0940 h1         1 42R       0.032700
     22 H5           2.7570    -0.9360     1.3650 h1         1 42R       0.032700
     23 H6           4.7470     0.1280     2.3260 hc         1 42R       0.017700
     24 H7           4.8660     1.8920     2.3970 hc         1 42R       0.017700
     25 H8           3.6200     1.0510     3.3300 hc         1 42R       0.017700
     26 H9           3.1310     3.1100     1.3860 ho         1 42R       0.406000
     27 H10          4.0110     0.5150    -2.1330 ha         1 42R       0.143000
     28 H11          0.8960    -2.3770    -1.4120 ha         1 42R       0.117000
     29 H12         -0.0860    -3.3430    -3.4520 ha         1 42R       0.119500
     30 H13          1.1460     0.0830    -5.6910 ha         1 42R       0.119500
     31 H14          2.1310     1.0690    -3.6610 ha         1 42R       0.117000
@<TRIPOS>BOND
     1     1     2 1   
     2     1    18 1   
     3     1    19 1   
     4     1    20 1   
     5     2     3 1   
     6     2    10 1   
     7     3     4 1   
     8     3    21 1   
     9     3    22 1   
    10     4     5 1   
    11     4     6 1   
    12     4     7 1   
    13     5    23 1   
    14     5    24 1   
    15     5    25 1   
    16     6    26 1   
    17     7     8 2   
    18     7     9 1   
    19     9    10 2   
    20     9    27 1   
    21    10    11 1   
    22    11    12 ar  
    23    11    17 ar  
    24    12    13 ar  
    25    12    28 1   
    26    13    14 ar  
    27    13    29 1   
    28    14    15 1   
    29    14    16 ar  
    30    16    17 ar  
    31    16    30 1   
    32    17    31 1   
@<TRIPOS>SUBSTRUCTURE
     1 42R         1 TEMP              0 ****  ****    0 ROOT
