@<TRIPOS>MOLECULE
molecule
   31    32     1     0     0
SMALL
bcc


@<TRIPOS>ATOM
      1 C1           0.0000     0.0000     0.0000 c3         1 42R       0.228100
      2 N1           1.4650     0.0000     0.0000 nh         1 42R      -0.711400
      3 C2           2.2220     0.0000     1.2610 c3         1 42R       0.252800
      4 C3           3.2210     1.1620     1.2210 c3         1 42R       0.037800
      5 C4           4.1840     1.0500     2.4050 c3         1 42R      -0.113100
      6 O1           2.5150     2.4030     1.2940 oh         1 42R      -0.589800
      7 C5           4.0010     1.1020    -0.0680 c          1 42R       0.565300
      8 O2           5.1290     1.5530    -0.1100 o          1 42R      -0.553100
      9 C6           3.4410     0.5340    -1.2120 ce         1 42R      -0.375200
     10 C7           2.1720    -0.0050    -1.1820 cf         1 42R       0.266800
     11 C8           1.5820    -0.5910    -2.4020 ca         1 42R      -0.071800
     12 C9           0.9530    -1.8370    -2.3490 ca         1 42R      -0.101000
     13 C10          0.4030    -2.3770    -3.4920 ca         1 42R      -0.107500
     14 C11          0.4740    -1.6880    -4.6910 ca         1 42R      -0.007900
     15 Br1         -0.2830    -2.4370    -6.2540 br         1 42R      -0.088100
     16 C12          1.0960    -0.4520    -4.7510 ca         1 42R      -0.107500
     17 C13          1.6440     0.1020    -3.6130 ca         1 42R      -0.101000
     18 H1          -0.3610    -1.0110     0.1480 h1         1 42R       0.042700
     19 H2          -0.3610     0.6330     0.8010 h1         1 42R       0.042700
     20 H3          -0.3610     0.3780    -0.9490 h1         1 42R       0.042700
     21 H4           1.5420     0.1330     2.0940 h1         1 42R       0.063700
     22 H5           2.7570    -0.9360     1.3650 h1         1 42R       0.063700
     23 H6           4.7470     0.1280     2.3260 hc         1 42R       0.050700
     24 H7           4.8660     1.8920     2.3970 hc         1 42R       0.050700
     25 H8           3.6200     1.0510     3.3300 hc         1 42R       0.050700
     26 H9           3.1310     3.1100     1.3860 ho         1 42R       0.415000
     27 H10          4.0110     0.5150    -2.1330 ha         1 42R       0.160000
     28 H11          0.8960    -2.3770    -1.4120 ha         1 42R       0.147500
     29 H12         -0.0860    -3.3430    -3.4520 ha         1 42R       0.149000
     30 H13          1.1460     0.0830    -5.6910 ha         1 42R       0.149000
     31 H14          2.1310     1.0690    -3.6610 ha         1 42R       0.147500
@<TRIPOS>BOND
     1     6     4 1
     2     3     4 1
     3     3     2 1
     4     4     7 1
     5     4     5 1
     6     7     8 2
     7     7     9 1
     8    17    16 ar
     9    17    11 ar
    10     2    10 1
    11     2     1 1
    12    16    14 ar
    13     9    10 2
    14    10    11 1
    15    11    12 ar
    16    14    15 1
    17    14    13 ar
    18    12    13 ar
    19     1    18 1
    20     1    19 1
    21     1    20 1
    22     3    21 1
    23     3    22 1
    24     5    23 1
    25     5    24 1
    26     5    25 1
    27     6    26 1
    28     9    27 1
    29    12    28 1
    30    13    29 1
    31    16    30 1
    32    17    31 1
@<TRIPOS>SUBSTRUCTURE
     1 42R         1 TEMP              0 ****  ****    0 ROOT
