@<TRIPOS>MOLECULE
molecule
   31    32     1     0     0
SMALL
bcc


@<TRIPOS>ATOM
      1 C01          0.0000     0.0000     0.0000 ca         1 42S      -0.158000
      2 C02          1.3830     0.0000     0.0000 ca         1 42S      -0.100000
      3 C03          2.0740     0.0000     1.1940 ca         1 42S      -0.176000
      4 C04          1.3800    -0.0000     2.3980 ca         1 42S       0.157600
      5 C05         -0.0090    -0.0000     2.3950 ca         1 42S      -0.176000
      6 C06         -0.6950     0.0060     1.1960 ca         1 42S      -0.100000
      7 N07          2.0780     0.0000     3.6100 nu         1 42S      -0.769600
      8 C08          1.5360     0.6250     4.7210 ce         1 42S       0.658800
      9 C09          0.6510     1.8000     4.5510 ca         1 42S      -0.141900
     10 C10         -0.0460     2.3160     5.6440 ca         1 42S      -0.040000
     11 C11         -0.8690     3.4100     5.4790 ca         1 42S      -0.193300
     12 C12         -1.0040     3.9970     4.2340 ca         1 42S      -0.066000
     13 C13         -0.3160     3.4910     3.1450 ca         1 42S      -0.141000
     14 C14          0.5150     2.3990     3.2990 ca         1 42S      -0.077000
     15 C15         -1.6230     3.9690     6.6590 c3         1 42S       0.676200
     16 F16         -2.8190     4.5440     6.2180 f          1 42S      -0.222300
     17 F17         -1.9040     2.9390     7.5630 f          1 42S      -0.222300
     18 F18         -0.8430     4.9430     7.2920 f          1 42S      -0.222300
     19 N19          1.8050     0.1810     5.9130 n2         1 42S      -0.507200
     20 O20          2.5600    -1.0050     6.0720 oh         1 42S      -0.387500
     21 H1          -0.5400     0.0020    -0.9390 ha         1 42S       0.132000
     22 H2           1.9240    -0.0020    -0.9390 ha         1 42S       0.134500
     23 H3           3.1580    -0.0000     1.1930 ha         1 42S       0.140500
     24 H4          -0.5530     0.0020     3.3310 ha         1 42S       0.140500
     25 H5          -1.7780     0.0060     1.1920 ha         1 42S       0.134500
     26 H6           2.9690    -0.4500     3.6740 hn         1 42S       0.468800
     27 H7           0.0590     1.8580     6.6200 ha         1 42S       0.169000
     28 H8          -1.6540     4.8550     4.1100 ha         1 42S       0.148000
     29 H9          -0.4240     3.9560     2.1730 ha         1 42S       0.145000
     30 H10          1.0540     2.0030     2.4460 ha         1 42S       0.163000
     31 H11          2.6890    -1.1750     6.9910 ho         1 42S       0.432000
@<TRIPOS>BOND
     1    13    12 ar  
     2    13    14 ar  
     3    12    11 ar  
     4    14     9 ar  
     5    11    15 1   
     6    11    10 ar  
     7    16    15 1   
     8    17    15 1   
     9     9    10 ar  
    10     9     8 1   
    11    15    18 1   
    12    19     8 2   
    13    19    20 1   
    14     8     7 1   
    15     5     6 ar  
    16     5     4 ar  
    17     7     4 1   
    18     6     1 ar  
    19     4     3 ar  
    20     1     2 ar  
    21     3     2 ar  
    22     1    21 1   
    23     2    22 1   
    24     3    23 1   
    25     5    24 1   
    26     6    25 1   
    27     7    26 1   
    28    10    27 1   
    29    12    28 1   
    30    13    29 1   
    31    14    30 1   
    32    20    31 1   
@<TRIPOS>SUBSTRUCTURE
     1 42S         1 TEMP              0 ****  ****    0 ROOT
