@<TRIPOS>MOLECULE
42T
   47    49     1     0     0
SMALL
bcc


@<TRIPOS>ATOM
      1 C01          0.0000     0.0000     0.0000 ca         1 42T      -0.141000
      2 C02          1.3840     0.0000     0.0000 ca         1 42T      -0.083500
      3 C03          2.0770     0.0000     1.1920 ca         1 42T      -0.139500
      4 C04          1.3800     0.0010     2.4020 ca         1 42T       0.143400
      5 C05         -0.0170     0.0010     2.3950 ca         1 42T      -0.139500
      6 C06         -0.6970     0.0060     1.1950 ca         1 42T      -0.083500
      7 N07          2.0610    -0.0000     3.5890 ne         1 42T      -0.548100
      8 C08          1.8780     0.9720     4.4500 cf         1 42T       0.522800
      9 C09          1.0740     2.1530     4.0720 ca         1 42T      -0.154900
     10 C10          0.2460     2.7660     5.0140 ca         1 42T      -0.057000
     11 C11         -0.5050     3.8680     4.6580 ca         1 42T      -0.193300
     12 C12         -0.4390     4.3690     3.3720 ca         1 42T      -0.073000
     13 C13          0.3830     3.7660     2.4270 ca         1 42T      -0.071400
     14 C14          1.1440     2.6620     2.7750 ca         1 42T      -0.050000
     15 C07         -1.3980     4.5290     5.6770 c3         1 42T       0.640200
     16 F16         -2.4980     5.1020     5.0290 f          1 42T      -0.207633
     17 F17         -1.8450     3.5730     6.5950 f          1 42T      -0.207633
     18 F18         -0.6810     5.5240     6.3500 f          1 42T      -0.207633
     19 N19          2.4370     0.8920     5.7070 nu         1 42T      -0.244700
     20 O20          3.2070    -0.2400     6.0680 oh         1 42T      -0.393300
     21 N14          0.4450     4.2770     1.1250 ns         1 42T      -0.043100
     22 C15          1.6110     4.2600     0.4500 c          1 42T       0.551100
     23 O16          2.5890     3.7280     0.9380 o          1 42T      -0.675100
     24 N17          1.6930     4.8330    -0.7670 ns         1 42T      -0.056100
     25 C18          2.8710     4.7190    -1.5170 ca         1 42T      -0.073400
     26 C19          2.8150     4.2980    -2.8400 ca         1 42T      -0.033600
     27 Cl1          1.2860     3.9140    -3.5670 cl         1 42T       0.006100
     28 C21          3.9800     4.1870    -3.5770 ca         1 42T      -0.087500
     29 C22          5.1980     4.4930    -2.9990 ca         1 42T      -0.083000
     30 C23          5.2560     4.9120    -1.6820 ca         1 42T      -0.087500
     31 C24          4.0960     5.0320    -0.9410 ca         1 42T      -0.033600
     32 Cl2          4.1710     5.5580     0.7110 cl         1 42T       0.006100
     33 H1          -0.5400     0.0020    -0.9390 ha         1 42T       0.100000
     34 H2           1.9240    -0.0030    -0.9390 ha         1 42T       0.099500
     35 H3           3.1610    -0.0000     1.1900 ha         1 42T       0.115500
     36 H4          -0.5650     0.0030     3.3290 ha         1 42T       0.115500
     37 H5          -1.7810     0.0060     1.1890 ha         1 42T       0.099500
     38 H6           0.1920     2.3760     6.0230 ha         1 42T       0.118000
     39 H7          -1.0320     5.2330     3.0980 ha         1 42T       0.119000
     40 H8           1.7860     2.1900     2.0410 ha         1 42T       0.183000
     41 H9           2.3400     1.6560     6.3460 hn         1 42T       0.276800
     42 H10          3.4810    -0.1590     6.9670 ho         1 42T       0.391000
     43 H11         -0.3690     4.6820     0.7070 hn         1 42T       0.165500
     44 H12          0.9240     5.3670    -1.1210 hn         1 42T       0.170500
     45 H13          3.9380     3.8590    -4.6090 ha         1 42T       0.118000
     46 H14          6.1090     4.4030    -3.5770 ha         1 42T       0.110000
     47 H15          6.2120     5.1530    -1.2330 ha         1 42T       0.118000
@<TRIPOS>BOND
     1     1     2 ar  
     2     1     6 ar  
     3     1    33 1   
     4     2     3 ar  
     5     2    34 1   
     6     3     4 ar  
     7     3    35 1   
     8     4     5 ar  
     9     4     7 1   
    10     5     6 ar  
    11     5    36 1   
    12     6    37 1   
    13     7     8 2   
    14     8     9 1   
    15     8    19 1   
    16     9    10 ar  
    17     9    14 ar  
    18    10    11 ar  
    19    10    38 1   
    20    11    12 ar  
    21    11    15 1   
    22    12    13 ar  
    23    12    39 1   
    24    13    14 ar  
    25    13    21 1   
    26    14    40 1   
    27    15    16 1   
    28    15    17 1   
    29    15    18 1   
    30    19    20 1   
    31    19    41 1   
    32    20    42 1   
    33    21    22 1   
    34    21    43 1   
    35    22    23 2   
    36    22    24 1   
    37    24    25 1   
    38    24    44 1   
    39    25    26 ar  
    40    25    31 ar  
    41    26    27 1   
    42    26    28 ar  
    43    28    29 ar  
    44    28    45 1   
    45    29    30 ar  
    46    29    46 1   
    47    30    31 ar  
    48    30    47 1   
    49    31    32 1   
@<TRIPOS>SUBSTRUCTURE
     1 42T         1 TEMP              0 ****  ****    0 ROOT
