@<TRIPOS>MOLECULE
42U
   54    57     1     0     0
SMALL
bcc


@<TRIPOS>ATOM
      1 C01          0.0000     0.0000     0.0000 ca         1 42U       0.105900
      2 F02         -0.6740    -0.0000    -1.1710 f          1 42U      -0.130900
      3 C03          1.3850     0.0000     0.0000 ca         1 42U      -0.139000
      4 C04          2.0780     0.0000     1.1930 ca         1 42U      -0.060000
      5 C05          1.3820    -0.0010     2.4000 ca         1 42U      -0.128500
      6 C06         -0.0120    -0.0010     2.3950 ca         1 42U      -0.060000
      7 C07         -0.6970     0.0040     1.1970 ca         1 42U      -0.139000
      8 C08          2.1210    -0.0020     3.6850 cc         1 42U       0.437800
      9 C09          1.7210     0.6500     4.8790 cc         1 42U      -0.239300
     10 C10          0.4930     1.4600     5.0670 ca         1 42U      -0.062000
     11 C11          0.1710     2.4640     4.1550 ca         1 42U      -0.009000
     12 C12         -0.9750     3.2110     4.3290 ca         1 42U      -0.203000
     13 C13         -1.8080     2.9650     5.4130 ca         1 42U       0.125600
     14 N14         -2.9690     3.7230     5.5860 nu         1 42U      -0.421600
     15 C15         -3.3050     4.7790     4.6270 c3         1 42U       0.152800
     16 C16         -4.6140     5.4510     5.0460 c3         1 42U       0.145800
     17 N17         -4.9520     6.5080     4.0840 n3         1 42U      -0.539600
     18 C18         -6.0670     7.3300     4.5740 c3         1 42U       0.149300
     19 C19         -6.3340     8.4650     3.5830 c3         1 42U       0.147300
     20 N20         -6.6430     7.8970     2.2630 n7         1 42U      -0.584200
     21 C21         -5.5290     7.0750     1.7730 c3         1 42U       0.147300
     22 C22         -5.2610     5.9390     2.7640 c3         1 42U       0.149300
     23 C23         -1.4900     1.9640     6.3240 ca         1 42U      -0.302300
     24 C24         -0.3460     1.2150     6.1540 ca         1 42U       0.003000
     25 C25         -2.3970     1.7000     7.4980 c3         1 42U       0.649200
     26 F26         -1.8720     0.6560     8.2670 f          1 42U      -0.211633
     27 F27         -2.4930     2.8540     8.2830 f          1 42U      -0.211633
     28 F28         -3.6680     1.3430     7.0350 f          1 42U      -0.211633
     29 C29          2.6720     0.3980     5.8220 cd         1 42U      -0.258300
     30 N30          3.6220    -0.3730     5.2540 na         1 42U       0.460400
     31 N31          3.2620    -0.6110     3.9230 nd         1 42U      -0.656800
     32 H1           1.9260     0.0010    -0.9390 ha         1 42U       0.119000
     33 H2           3.1610    -0.0000     1.1910 ha         1 42U       0.122500
     34 H3          -0.5580     0.0010     3.3310 ha         1 42U       0.122500
     35 H4          -1.7800     0.0050     1.1930 ha         1 42U       0.119000
     36 H5           0.8200     2.6560     3.3090 ha         1 42U       0.113000
     37 H6          -1.2250     3.9910     3.6200 ha         1 42U       0.125000
     38 H7          -3.5630     3.5550     6.3740 hn         1 42U       0.304800
     39 H8          -2.5110     5.5150     4.6070 h1         1 42U       0.026700
     40 H9          -3.4220     4.3460     3.6400 h1         1 42U       0.026700
     41 H10         -4.4980     5.8840     6.0320 h1         1 42U       0.015700
     42 H11         -5.4080     4.7140     5.0670 h1         1 42U       0.015700
     43 H13         -6.9550     6.7160     4.6660 h1         1 42U       0.016700
     44 H14         -5.8090     7.7480     5.5400 h1         1 42U       0.016700
     45 H15         -7.1750     9.0540     3.9280 h1         1 42U       0.011950
     46 H16         -5.4530     9.0920     3.5070 h1         1 42U       0.011950
     47 H17         -6.8220     8.6380     1.6140 hn         1 42U       0.254800
     48 H19         -5.7870     6.6560     0.8070 h1         1 42U       0.011950
     49 H20         -4.6410     7.6890     1.6800 h1         1 42U       0.011950
     50 H21         -4.4180     5.3520     2.4190 h1         1 42U       0.016700
     51 H22         -6.1400     5.3110     2.8390 h1         1 42U       0.016700
     52 H23         -0.0990     0.4350     6.8640 ha         1 42U       0.119000
     53 H24          2.6660     0.7530     6.8460 h4         1 42U       0.150000
     54 H25          4.4460    -0.7170     5.7080 hn         1 42U       0.148700
@<TRIPOS>BOND
     1     1     2 1   
     2     1     3 ar  
     3     1     7 ar  
     4     3     4 ar  
     5     3    32 1   
     6     4     5 ar  
     7     4    33 1   
     8     5     6 ar  
     9     5     8 1   
    10     6     7 ar  
    11     6    34 1   
    12     7    35 1   
    13     8     9 1   
    14     8    31 2   
    15     9    10 1   
    16     9    29 2   
    17    10    11 ar  
    18    10    24 ar  
    19    11    12 ar  
    20    11    36 1   
    21    12    13 ar  
    22    12    37 1   
    23    13    14 1   
    24    13    23 ar  
    25    14    15 1   
    26    14    38 1   
    27    15    16 1   
    28    15    39 1   
    29    15    40 1   
    30    16    17 1   
    31    16    41 1   
    32    16    42 1   
    33    17    18 1   
    34    17    22 1   
    35    18    19 1   
    36    18    43 1   
    37    18    44 1   
    38    19    20 1   
    39    19    45 1   
    40    19    46 1   
    41    20    21 1   
    42    20    47 1   
    43    21    22 1   
    44    21    48 1   
    45    21    49 1   
    46    22    50 1   
    47    22    51 1   
    48    23    24 ar  
    49    23    25 1   
    50    24    52 1   
    51    25    26 1   
    52    25    27 1   
    53    25    28 1   
    54    29    30 1   
    55    29    53 1   
    56    30    31 1   
    57    30    54 1   
@<TRIPOS>SUBSTRUCTURE
     1 42U         1 TEMP              0 ****  ****    0 ROOT
