@<TRIPOS>MOLECULE
molecule
   25    26     1     0     0
SMALL
bcc


@<TRIPOS>ATOM
      1 N            0.0000     0.0000     0.0000 ns         1 42V      -0.392100
      2 C           -3.5650    -4.0930     3.2050 c3         1 42V       0.101300
      3 O            1.9500     0.0010    -1.0600 o          1 42V      -0.643500
      4 C01         -1.9790    -2.1720     3.0480 c          1 42V       0.693700
      5 C02         -1.7080    -0.9800     3.8650 cc         1 42V      -0.126600
      6 C03         -3.3260    -2.1840     4.7890 cs         1 42V       0.577400
      7 C04         -0.7920    -0.0070     3.6260 cf         1 42V      -0.021000
      8 C05         -0.0330    -0.0060     2.3690 cd         1 42V      -0.200000
      9 C06          1.3850    -0.0110     2.3910 cd         1 42V      -0.026000
     10 C07          2.0620     0.0000     1.2120 cc         1 42V      -0.258200
     11 C08          1.3460     0.0000     0.0000 c          1 42V       0.682700
     12 C09         -0.6940    -0.0010     1.1540 cc         1 42V       0.063600
     13 N01         -2.9690    -2.8400     3.6730 n          1 42V      -0.430400
     14 N02         -2.5980    -1.0660     4.9450 ns         1 42V      -0.409100
     15 S           -4.5480    -2.7050     5.8700 s          1 42V      -0.593400
     16 H1          -0.4930     0.0030    -0.8710 hn         1 42V       0.342500
     17 H2          -3.8570    -4.6940     4.0580 h1         1 42V       0.070367
     18 H3          -4.4370    -3.8740     2.6010 h1         1 42V       0.070367
     19 H4          -2.8410    -4.6370     2.6110 h1         1 42V       0.070367
     20 H5          -0.6950     0.8230     4.3150 ha         1 42V       0.148000
     21 H7           1.9210    -0.0110     3.3320 ha         1 42V       0.140000
     22 H8           3.1450    -0.0020     1.2050 ha         1 42V       0.169000
     23 H9          -1.7770    -0.0010     1.1310 h4         1 42V       0.158000
     24 H6          -2.6780    -0.4100     5.6960 hn         1 42V       0.380500
     25 O01         -1.4230    -2.4880     2.0120 o          1 42V      -0.568500
@<TRIPOS>BOND
     1     2    13 1   
     2    15     6 2   
     3    13     6 1   
     4    13     4 1   
     5     6    14 1   
     6     4    25 2   
     7     4     5 1   
     8    14     5 1   
     9    10     9 2   
    10    10    11 1   
    11     9     8 1   
    12     5     7 2   
    13     3    11 2   
    14    11     1 1   
    15     8     7 1   
    16     8    12 2   
    17     1    12 1   
    18     1    16 1   
    19     2    17 1   
    20     2    18 1   
    21     2    19 1   
    22     7    20 1   
    23     9    21 1   
    24    10    22 1   
    25    12    23 1   
    26    14    24 1   
@<TRIPOS>SUBSTRUCTURE
     1 42V         1 TEMP              0 ****  ****    0 ROOT
