@<TRIPOS>MOLECULE
42W
   38    40     1     0     0
SMALL
bcc


@<TRIPOS>ATOM
      1 C10          0.0000     0.0000     0.0000 cc         1 42W      -0.238200
      2 C13          2.0470     0.0000     1.2390 cd         1 42W      -0.214000
      3 C15          5.7790     2.2060     2.8700 cs         1 42W       0.247400
      4 N01          4.6320     2.8590     3.1090 n          1 42W      -0.008400
      5 C02         -0.7700    -0.0030     3.6520 c3         1 42W       0.062300
      6 C03         -0.1230    -2.0800     4.8890 ca         1 42W      -0.080000
      7 C04         -0.3660    -3.3810     5.2880 ca         1 42W      -0.101500
      8 C05         -1.5190    -4.0240     4.8790 ca         1 42W      -0.087000
      9 C06         -2.4290    -3.3680     4.0730 ca         1 42W      -0.101500
     10 C07         -2.1860    -2.0670     3.6740 ca         1 42W      -0.080000
     11 C08         -1.0320    -1.4230     4.0820 ca         1 42W      -0.140300
     12 N02         -0.0240    -0.0040     2.3910 n          1 42W       0.158000
     13 O01         -1.9140     0.0070     1.2290 o          1 42W      -0.695500
     14 C09          1.3590     0.0000     0.0000 cd         1 42W       0.001000
     15 C11         -0.6940     0.0010     1.2250 c          1 42W       0.588700
     16 C12          1.3240     0.0010     2.4190 cc         1 42W      -0.059400
     17 C14          3.5140     0.0060     1.2710 cf         1 42W       0.048000
     18 S            7.3220     2.7320     3.3890 s          1 42W      -0.630400
     19 N            5.5550     1.0780     2.1710 ns         1 42W       0.118900
     20 C16          4.1750     0.9860     1.9380 cc         1 42W      -0.319600
     21 C            3.5990     2.1830     2.5690 c          1 42W       0.611700
     22 H1          -0.5450     0.0020    -0.9360 ha         1 42W       0.139000
     23 H2           5.4030     4.7210     3.6730 h1         1 42W       0.038033
     24 H3           4.4300     3.9100     4.9070 h1         1 42W       0.038033
     25 H4           3.6430     4.6590     3.5120 h1         1 42W       0.038033
     26 H5          -1.7130     0.5120     3.5140 h1         1 42W       0.051700
     27 H6          -0.1900     0.5040     4.4150 h1         1 42W       0.051700
     28 H7           0.7810    -1.5760     5.2090 ha         1 42W       0.115500
     29 H8           0.3470    -3.8960     5.9200 ha         1 42W       0.106500
     30 H9          -1.7100    -5.0440     5.1920 ha         1 42W       0.104000
     31 H10         -3.3330    -3.8720     3.7530 ha         1 42W       0.106500
     32 H11         -2.8990    -1.5520     3.0420 ha         1 42W       0.115500
     33 H12          1.9090    -0.0010    -0.9340 ha         1 42W       0.106000
     34 H13          1.8430     0.0010     3.3690 h4         1 42W       0.132000
     35 H14          3.8780    -0.1730     0.2670 ha         1 42W       0.117000
     36 H15          6.2490     0.4220     1.8720 hn         1 42W       0.207500
     37 C01          4.5200     4.1190     3.8480 c3         1 42W       0.065300
     38 O            2.4220     2.4980     2.5980 o          1 42W      -0.611500
@<TRIPOS>BOND
     1     1    14 2   
     2     1    15 1   
     3     1    22 1   
     4     2    14 1   
     5     2    16 2   
     6     2    17 1   
     7     3     4 1   
     8     3    18 2   
     9     3    19 1   
    10     4    21 1   
    11     4    37 1   
    12     5    11 1   
    13     5    12 1   
    14     5    26 1   
    15     5    27 1   
    16     6     7 ar  
    17     6    11 ar  
    18     6    28 1   
    19     7     8 ar  
    20     7    29 1   
    21     8     9 ar  
    22     8    30 1   
    23     9    10 ar  
    24     9    31 1   
    25    10    11 ar  
    26    10    32 1   
    27    12    15 1   
    28    12    16 1   
    29    13    15 2   
    30    14    33 1   
    31    16    34 1   
    32    17    20 2   
    33    17    35 1   
    34    19    20 1   
    35    19    36 1   
    36    20    21 1   
    37    21    38 2   
    38    23    37 1   
    39    24    37 1   
    40    25    37 1   
@<TRIPOS>SUBSTRUCTURE
     1 42W         1 TEMP              0 ****  ****    0 ROOT
