@<TRIPOS>MOLECULE
molecule
   38    40     1     0     0
SMALL
bcc


@<TRIPOS>ATOM
      1 C10          0.0000     0.0000     0.0000 cc         1 42W      -0.260200
      2 C13          2.0470     0.0000     1.2390 cc         1 42W      -0.204000
      3 C15          5.7790     2.2060     2.8700 cs         1 42W       0.577400
      4 N01          4.6320     2.8590     3.1090 n          1 42W      -0.429400
      5 C02         -0.7700    -0.0030     3.6520 c3         1 42W       0.134300
      6 C03         -0.1230    -2.0800     4.8890 ca         1 42W      -0.106500
      7 C04         -0.3660    -3.3810     5.2880 ca         1 42W      -0.131000
      8 C05         -1.5190    -4.0240     4.8790 ca         1 42W      -0.116000
      9 C06         -2.4290    -3.3680     4.0730 ca         1 42W      -0.131000
     10 C07         -2.1860    -2.0670     3.6740 ca         1 42W      -0.106500
     11 C08         -1.0320    -1.4230     4.0820 ca         1 42W      -0.126300
     12 N02         -0.0240    -0.0040     2.3910 n          1 42W      -0.294000
     13 O01         -1.9140     0.0070     1.2290 o          1 42W      -0.654500
     14 C09          1.3590     0.0000     0.0000 cc         1 42W      -0.026000
     15 C11         -0.6940     0.0010     1.2250 c          1 42W       0.687700
     16 C12          1.3240     0.0010     2.4190 cd         1 42W       0.071600
     17 C14          3.5140     0.0060     1.2710 ce         1 42W      -0.016000
     18 S            7.3220     2.7320     3.3890 s          1 42W      -0.595400
     19 N            5.5550     1.0780     2.1710 ns         1 42W      -0.410100
     20 C16          4.1750     0.9860     1.9380 cd         1 42W      -0.130600
     21 C            3.5990     2.1830     2.5690 c          1 42W       0.693700
     22 H1          -0.5450     0.0020    -0.9360 ha         1 42W       0.167000
     23 H2           3.6430     4.6590     3.5110 h1         1 42W       0.070033
     24 H3           5.4040     4.7210     3.6730 h1         1 42W       0.070033
     25 H4           4.4300     3.9100     4.9070 h1         1 42W       0.070033
     26 H5          -1.7130     0.5120     3.5140 h1         1 42W       0.080700
     27 H6          -0.1900     0.5040     4.4150 h1         1 42W       0.080700
     28 H7           0.7810    -1.5760     5.2090 ha         1 42W       0.139000
     29 H8           0.3470    -3.8960     5.9200 ha         1 42W       0.133500
     30 H9          -1.7100    -5.0440     5.1920 ha         1 42W       0.131000
     31 H10         -3.3330    -3.8720     3.7530 ha         1 42W       0.133500
     32 H11         -2.8990    -1.5520     3.0420 ha         1 42W       0.139000
     33 H12          1.9090    -0.0010    -0.9340 ha         1 42W       0.139000
     34 H13          1.8430     0.0010     3.3690 h4         1 42W       0.158000
     35 H14          4.0660    -0.8250     0.8490 ha         1 42W       0.148000
     36 H15          6.2490     0.4220     1.8720 hn         1 42W       0.380500
     37 C01          4.5200     4.1190     3.8480 c3         1 42W       0.101300
     38 O            2.4220     2.4980     2.5980 o          1 42W      -0.568500
@<TRIPOS>BOND
     1     8     7 ar
     2     8     9 ar
     3     7     6 ar
     4     9    10 ar
     5    17     2 1
     6    17    20 2
     7     6    11 ar
     8    14     2 1
     9    14     1 2
    10     2    16 2
    11    20    19 1
    12    20    21 1
    13     1    15 1
    14    10    11 ar
    15    11     5 1
    16    19     3 1
    17    16    12 1
    18    15    12 1
    19    15    13 2
    20    12     5 1
    21    21    38 2
    22    21     4 1
    23     3     4 1
    24     3    18 2
    25     4    37 1
    26     1    22 1
    27    37    23 1
    28    37    24 1
    29    37    25 1
    30     5    26 1
    31     5    27 1
    32     6    28 1
    33     7    29 1
    34     8    30 1
    35     9    31 1
    36    10    32 1
    37    14    33 1
    38    16    34 1
    39    17    35 1
    40    19    36 1
@<TRIPOS>SUBSTRUCTURE
     1 42W         1 TEMP              0 ****  ****    0 ROOT
