@<TRIPOS>MOLECULE
molecule
   52    51     1     0     0
SMALL
bcc


@<TRIPOS>ATOM
      1 C14          0.0000     0.0000     0.0000 c3         1 42X      -0.066100
      2 C10          2.0410    -1.2480    -0.7220 c3         1 42X      -0.066100
      3 O01          3.4880     2.4280    -3.4240 o          1 42X      -0.909833
      4 P02          1.9070     2.4200    -3.1200 p5         1 42X       1.179900
      5 O03          1.5080     3.7270    -2.5510 o          1 42X      -0.909833
      6 O04          1.1030     2.1640    -4.4900 o          1 42X      -0.909833
      7 O05          1.5630     1.2510    -2.0680 os         1 42X      -0.585200
      8 C06          2.0400     1.2500    -0.7210 c3         1 42X       0.229400
      9 C09          1.5310     0.0000     0.0000 c3         1 42X      -0.071000
     10 C18          2.0400     0.0000     1.4420 c3         1 42X       0.088100
     11 O20          3.4630    -0.1340     1.4450 oh         1 42X      -0.551800
     12 C22          1.6580     1.2950     2.1110 c          1 42X       0.647100
     13 O23          2.5140     2.0980     2.4130 o          1 42X      -0.586100
     14 N24          0.3620     1.5610     2.3730 ns         1 42X      -0.601900
     15 C26         -0.0200     2.8580     2.9340 c3         1 42X       0.129000
     16 C29         -1.5360     2.9000     3.1340 c3         1 42X      -0.173400
     17 C32         -1.9310     4.2360     3.7110 c          1 42X       0.664100
     18 O33         -1.0810     5.0720     3.9400 o          1 42X      -0.594100
     19 N34         -3.2250     4.5020     3.9740 ns         1 42X      -0.595900
     20 C36         -3.6080     5.8000     4.5340 c3         1 42X       0.098000
     21 C39         -5.1240     5.8420     4.7340 c3         1 42X       0.092000
     22 N42         -5.5070     7.1400     5.2960 ns         1 42X      -0.583900
     23 C44         -6.8020     7.4050     5.5580 c          1 42X       0.657100
     24 O45         -7.6510     6.5690     5.3290 o          1 42X      -0.613100
     25 C46         -7.1960     8.7400     6.1350 c3         1 42X      -0.160400
     26 C49         -8.7120     8.7820     6.3350 c3         1 42X      -0.075100
     27 H1          -0.3610    -0.5650     0.8510 hc         1 42X       0.028367
     28 H2          -0.3610     1.0190     0.0640 hc         1 42X       0.028367
     29 H3          -0.3610    -0.4540    -0.9150 hc         1 42X       0.028367
     30 H4           1.5150    -1.3620    -1.6620 hc         1 42X       0.028367
     31 H5           3.1020    -1.1480    -0.9110 hc         1 42X       0.028367
     32 H6           1.8650    -2.1200    -0.1030 hc         1 42X       0.028367
     33 H9           3.1230     1.2510    -0.7210 h1         1 42X       0.029700
     34 H10          1.6780     2.1340    -0.2100 h1         1 42X       0.029700
     35 H11          1.5990    -0.8290     1.9810 h1         1 42X       0.006700
     36 H12          3.7280    -0.6620     2.1800 ho         1 42X       0.373000
     37 H13         -0.3300     0.8500     2.2420 hn         1 42X       0.306500
     38 H14          0.4740     2.9990     3.8880 h1         1 42X       0.070700
     39 H15          0.2760     3.6480     2.2540 h1         1 42X       0.070700
     40 H16         -1.8330     2.1110     3.8140 hc         1 42X       0.062200
     41 H17         -2.0300     2.7590     2.1800 hc         1 42X       0.062200
     42 H18         -3.9250     3.8120     3.7850 hn         1 42X       0.312500
     43 H19         -3.3110     6.5890     3.8540 h1         1 42X       0.054700
     44 H20         -3.1130     5.9410     5.4880 h1         1 42X       0.054700
     45 H21         -5.6180     5.7020     3.7810 h1         1 42X       0.055700
     46 H22         -5.4210     5.0530     5.4150 h1         1 42X       0.055700
     47 H23         -4.8040     7.8220     5.5040 hn         1 42X       0.316500
     48 H24         -6.8990     9.5300     5.4550 hc         1 42X       0.056700
     49 H25         -6.7020     8.8820     7.0890 hc         1 42X       0.056700
     50 H26         -9.2060     8.6420     5.3810 hc         1 42X       0.041033
     51 H27         -8.9950     9.7420     6.7500 hc         1 42X       0.041033
     52 H28         -9.0090     7.9930     7.0150 hc         1 42X       0.041033
@<TRIPOS>BOND
     1    24    23 2   
     2    21    20 1   
     3    21    22 1   
     4    20    19 1   
     5    18    17 2   
     6    23    22 1   
     7    23    25 1   
     8    13    12 2   
     9    19    17 1   
    10    10    12 1   
    11    10    11 1   
    12    10     9 1   
    13    17    16 1   
    14    25    26 1   
    15    12    14 1   
    16     2     9 1   
    17     1     9 1   
    18     9     8 1   
    19    14    15 1   
    20    15    16 1   
    21     8     7 1   
    22     7     4 1   
    23     4     5 1   
    24     4     6 1   
    25     4     3 1   
    26     1    27 1   
    27     1    28 1   
    28     1    29 1   
    29     2    30 1   
    30     2    31 1   
    31     2    32 1   
    32     8    33 1   
    33     8    34 1   
    34    10    35 1   
    35    11    36 1   
    36    14    37 1   
    37    15    38 1   
    38    15    39 1   
    39    16    40 1   
    40    16    41 1   
    41    19    42 1   
    42    20    43 1   
    43    20    44 1   
    44    21    45 1   
    45    21    46 1   
    46    22    47 1   
    47    25    48 1   
    48    25    49 1   
    49    26    50 1   
    50    26    51 1   
    51    26    52 1   
@<TRIPOS>SUBSTRUCTURE
     1 42X         1 TEMP              0 ****  ****    0 ROOT
