@<TRIPOS>MOLECULE
42Y
   22    21     1     0     0
SMALL
bcc


@<TRIPOS>ATOM
      1 N            0.0000     0.0000     0.0000 nz         1 42Y       0.094400
      2 CA           1.4680     0.0000     0.0000 c3         1 42Y      -0.209500
      3 CB           1.9790     1.2490    -0.7220 c3         1 42Y       0.227400
      4 OG           1.5940     1.1900    -2.1220 os         1 42Y      -0.468900
      5 C1A          1.9680     2.2180    -2.8990 c          1 42Y       0.693100
      6 OAC          2.5950     3.1360    -2.4280 o          1 42Y      -0.554000
      7 C2A          1.6040     2.2270    -4.3620 c3         1 42Y      -0.065400
      8 C            1.9720     0.0000     1.4200 c          1 42Y       0.955600
      9 O            3.2260    -0.3980     1.6880 o          1 42Y      -0.811300
     10 C1           2.1460     3.5000    -5.0140 c3         1 42Y       0.016900
     11 O1           1.2470     0.3590     2.3180 o          1 42Y      -0.811300
     12 H1          -0.3340     0.9000     0.2840 hn         1 42Y       0.210800
     13 H2          -0.3340    -0.2040    -0.9210 hn         1 42Y       0.210800
     14 H4           1.8290    -0.8850    -0.5110 hx         1 42Y       0.093700
     15 H5           1.5480     2.1320    -0.2660 h1         1 42Y       0.051200
     16 H6           3.0590     1.2940    -0.6470 h1         1 42Y       0.051200
     17 H7           2.0370     1.3600    -4.8470 hc         1 42Y       0.031700
     18 H8           0.5260     2.1980    -4.4660 hc         1 42Y       0.031700
     19 H9           3.2240     3.5290    -4.9100 hc         1 42Y       0.014367
     20 H10          1.8840     3.5060    -6.0660 hc         1 42Y       0.014367
     21 H11          1.7130     4.3660    -4.5300 hc         1 42Y       0.014367
     22 HN3         -0.3340    -0.7050     0.6270 hn         1 42Y       0.210800
@<TRIPOS>BOND
     1     1     2 1   
     2     1    12 1   
     3     1    13 1   
     4     1    22 1   
     5     2     3 1   
     6     2     8 1   
     7     2    14 1   
     8     3     4 1   
     9     3    15 1   
    10     3    16 1   
    11     4     5 1   
    12     5     6 2   
    13     5     7 1   
    14     7    10 1   
    15     7    17 1   
    16     7    18 1   
    17     8     9 1   
    18     8    11 1   
    19    10    19 1   
    20    10    20 1   
    21    10    21 1   
@<TRIPOS>SUBSTRUCTURE
     1 42Y         1 TEMP              0 ****  ****    0 ROOT
