@<TRIPOS>MOLECULE
molecule
   24    25     1     0     0
SMALL
bcc


@<TRIPOS>ATOM
      1 C1           0.0000     0.0000     0.0000 ca         1 42Z      -0.052000
      2 C2           1.4010     0.0000     0.0000 ca         1 42Z       0.102400
      3 C3           2.0930     0.0000     1.2270 ca         1 42Z      -0.098200
      4 C4           1.3820    -0.0010     2.4210 ca         1 42Z      -0.112000
      5 C5           0.0040    -0.0010     2.3950 ca         1 42Z       0.035400
      6 C6          -0.6800     0.0000     1.1840 ca         1 42Z       0.007400
      7 N13          3.4330     0.0000     0.9120 na         1 42Z      -0.230300
      8 C14          3.5240     0.0010    -0.4550 cc         1 42Z       0.413800
      9 N15          2.3250     0.0020    -0.9780 nd         1 42Z      -0.579100
     10 C24          4.7870     0.0020    -1.2240 c          1 42Z       0.584800
     11 N26          4.7570     0.0030    -2.5720 ns         1 42Z      -0.503900
     12 C28          5.6990     0.0050    -4.8080 c          1 42Z       0.883600
     13 O30          6.6990     0.0050    -5.7030 o          1 42Z      -0.836800
     14 O32          4.5520     0.0040    -5.1840 o          1 42Z      -0.836800
     15 O34          5.8540     0.0020    -0.6410 o          1 42Z      -0.648100
     16 C43          6.0090     0.0040    -3.3330 c3         1 42Z      -0.008000
     17 H1          -0.5420    -0.0600    -0.9360 ha         1 42Z       0.164000
     18 H4           1.9070     0.0940     3.3640 ha         1 42Z       0.142000
     19 HN26         3.8790    -0.0210    -3.0530 hn         1 42Z       0.357500
     20 H43          6.5830    -0.8810    -3.0850 h1         1 42Z       0.050200
     21 H43A         6.5830     0.8880    -3.0830 h1         1 42Z       0.050200
     22 HN13         4.1960    -0.0000     1.5590 hn         1 42Z       0.321700
     23 Cl3         -2.4160     0.0060     1.1770 cl         1 42Z      -0.103400
     24 Cl4         -0.8850    -0.0020     3.8870 cl         1 42Z      -0.104400
@<TRIPOS>BOND
     1     2     1 ar
     2     1     6 ar
     3     1    17 1
     4     3     2 ar
     5     9     2 1
     6     7     3 1
     7     3     4 ar
     8     6    23 1
     9     4     5 ar
    10     4    18 1
    11     5    24 1
    12     5     6 ar
    13     7     8 1
    14    10     8 1
    15     8     9 2
    16    11    10 1
    17    10    15 2
    18    16    11 1
    19    11    19 1
    20    14    12 1
    21    13    12 1
    22    12    16 1
    23    16    20 1
    24    16    21 1
    25     7    22 1
@<TRIPOS>SUBSTRUCTURE
     1 42Z         1 TEMP              0 ****  ****    0 ROOT
