@<TRIPOS>MOLECULE
430
   47    50     1     0     0
SMALL
bcc


@<TRIPOS>ATOM
      1 C01          0.0000     0.0000     0.0000 c3         1 430      -0.036100
      2 C02          1.5300     0.0000     0.0000 c3         1 430       0.194400
      3 O03          2.0060     0.0000     1.3470 os         1 430      -0.236900
      4 C04          2.2120     1.2110     1.9270 cc         1 430       0.342100
      5 C05          1.9830     2.3990     1.2760 cc         1 430      -0.269000
      6 C06          2.2390     3.5070     1.9990 cd         1 430       0.125700
      7 N07          2.0780     4.8120     1.5430 na         1 430       0.414600
      8 C08          2.5570     5.3260     0.3740 cc         1 430       0.244700
      9 N09          2.2220     6.5780     0.2660 nd         1 430      -0.442100
     10 C10          1.5060     6.9560     1.3580 ca         1 430       0.070400
     11 C11          0.9130     8.1590     1.7490 ca         1 430      -0.016000
     12 C12          0.2360     8.2290     2.9460 ca         1 430      -0.094000
     13 C13          0.1370     7.1150     3.7660 ca         1 430      -0.062000
     14 C14          0.7160     5.9200     3.3940 ca         1 430      -0.095000
     15 C15          1.3990     5.8290     2.1900 ca         1 430      -0.280200
     16 S16          2.8060     3.0610     3.6020 ss         1 430      -0.247800
     17 C17          2.6630     1.3510     3.2160 cd         1 430      -0.295700
     18 C18          2.9670     0.2870     4.0960 c          1 430       0.409700
     19 N19          3.4030     0.5490     5.3450 nz         1 430       0.206600
     20 O20          2.8340    -0.8660     3.7260 o          1 430      -0.466100
     21 C21          2.0320    -1.2310    -0.7100 ca         1 430      -0.065300
     22 C22          2.3600    -2.3620     0.0160 ca         1 430      -0.091000
     23 C23          2.8200    -3.4920    -0.6350 ca         1 430      -0.057000
     24 C24          2.9510    -3.4910    -2.0110 ca         1 430      -0.086000
     25 C25          2.6230    -2.3610    -2.7370 ca         1 430      -0.032000
     26 C26          2.1590    -1.2330    -2.0860 ca         1 430      -0.197300
     27 C27          1.7950    -0.0030    -2.8770 c3         1 430       0.640200
     28 F28          2.0050    -0.2450    -4.2390 f          1 430      -0.205300
     29 F29          0.4480     0.3090    -2.6620 f          1 430      -0.205300
     30 F30          2.5930     1.0690    -2.4650 f          1 430      -0.205300
     31 H011        -0.3610     0.9390    -0.4010 hc         1 430       0.031033
     32 H012        -0.3610    -0.1220     1.0140 hc         1 430       0.031033
     33 H013        -0.3610    -0.8170    -0.6130 hc         1 430       0.031033
     34 H02          1.8910     0.8840    -0.5110 h1         1 430       0.045700
     35 H05          1.6230     2.4420     0.2550 ha         1 430       0.179000
     36 H08          3.1320     4.7720    -0.3590 h5         1 430       0.041800
     37 H11          0.9860     9.0330     1.1130 ha         1 430       0.125000
     38 H12         -0.2240     9.1620     3.2490 ha         1 430       0.119000
     39 H13         -0.3990     7.1840     4.7050 ha         1 430       0.113000
     40 H14          0.6360     5.0530     4.0390 ha         1 430       0.101000
     41 H191         2.7110     1.0800     5.8350 hn         1 430       0.244133
     42 H192         3.5680    -0.3120     5.8280 hn         1 430       0.244133
     43 H22          2.2570    -2.3630     1.0940 ha         1 430       0.122000
     44 H23          3.0770    -4.3770    -0.0670 ha         1 430       0.114000
     45 H24          3.3140    -4.3750    -2.5210 ha         1 430       0.121000
     46 H25          2.7240    -2.3610    -3.8150 ha         1 430       0.132000
     47 H193         4.2440     1.0890     5.2980 hn         1 430       0.244133
@<TRIPOS>BOND
     1     1     2 1   
     2     1    31 1   
     3     1    32 1   
     4     1    33 1   
     5     2     3 1   
     6     2    21 1   
     7     2    34 1   
     8     3     4 1   
     9     4     5 1   
    10     4    17 2   
    11     5     6 2   
    12     5    35 1   
    13     6     7 1   
    14     6    16 1   
    15     7     8 1   
    16     7    15 1   
    17     8     9 2   
    18     8    36 1   
    19     9    10 1   
    20    10    11 ar  
    21    10    15 ar  
    22    11    12 ar  
    23    11    37 1   
    24    12    13 ar  
    25    12    38 1   
    26    13    14 ar  
    27    13    39 1   
    28    14    15 ar  
    29    14    40 1   
    30    16    17 1   
    31    17    18 1   
    32    18    19 1   
    33    18    20 2   
    34    19    41 1   
    35    19    42 1   
    36    19    47 1   
    37    21    22 ar  
    38    21    26 ar  
    39    22    23 ar  
    40    22    43 1   
    41    23    24 ar  
    42    23    44 1   
    43    24    25 ar  
    44    24    45 1   
    45    25    26 ar  
    46    25    46 1   
    47    26    27 1   
    48    27    28 1   
    49    27    29 1   
    50    27    30 1   
@<TRIPOS>SUBSTRUCTURE
     1 430         1 TEMP              0 ****  ****    0 ROOT
