@<TRIPOS>MOLECULE
431
   30    32     1     0     0
SMALL
bcc


@<TRIPOS>ATOM
      1 CAB         0.0730   -0.2960   -0.0800 cc        1 431     -0.321200
      2 CAD         1.5340   -0.3200   -0.0610 c         1 431      0.590900
      3 OAH         2.2160   -0.5130   -1.0780 o         1 431     -0.547100
      4 CAE         2.1200   -0.0960    1.2690 ca        1 431     -0.214600
      5 CAN         3.5090   -0.0920    1.4690 ca        1 431     -0.047000
      6 CAQ         4.0350    0.1220    2.7360 ca        1 431     -0.166000
      7 CAR         3.1830    0.3370    3.8270 ca        1 431     -0.079000
      8 CAO         1.8050    0.3390    3.6610 ca        1 431     -0.160000
      9 CAF         1.2810    0.1210    2.3730 ca        1 431      0.143100
     10 OAC        -0.1020    0.1390    2.2880 os        1 431     -0.225200
     11 CAA        -0.6610   -0.0740    1.0350 cd        1 431      0.199900
     12 CAG        -2.1230   -0.0350    1.0900 ca        1 431     -0.085800
     13 CAI        -2.8030   -0.3890    2.2640 ca        1 431     -0.087500
     14 CAK        -4.1940   -0.3660    2.3010 ca        1 431     -0.139000
     15 CAM        -4.9290    0.0110    1.1700 ca        1 431     -0.051300
     16 CAP        -6.4090    0.0170    1.2070 c3        1 431     -0.059800
     17 CAL        -4.2470    0.3720    0.0020 ca        1 431     -0.139000
     18 CAJ        -2.8560    0.3510   -0.0410 ca        1 431     -0.087500
     19 H1         -0.4110   -0.4780   -1.0510 ha        1 431      0.168000
     20 H2          4.1650   -0.2630    0.5990 ha        1 431      0.161000
     21 H3          5.1250    0.1230    2.8870 ha        1 431      0.141000
     22 H4          3.6100    0.5060    4.8280 ha        1 431      0.139000
     23 H5          1.1220    0.5070    4.5050 ha        1 431      0.153000
     24 H6         -2.2290   -0.6820    3.1570 ha        1 431      0.145000
     25 H7         -4.7200   -0.6460    3.2250 ha        1 431      0.138000
     26 H8         -6.8000   -0.9950    0.9310 hc        1 431      0.049367
     27 H9         -6.8260    0.7620    0.4850 hc        1 431      0.049367
     28 H10        -6.7820    0.2690    2.2310 hc        1 431      0.049367
     29 H11        -4.8150    0.6760   -0.8900 ha        1 431      0.138000
     30 H12        -2.3320    0.6450   -0.9640 ha        1 431      0.145000
@<TRIPOS>BOND
     1    1    2 1   
     2    1   11 2   
     3    1   19 1   
     4    2    3 2   
     5    2    4 1   
     6    4    5 ar  
     7    4    9 ar  
     8    5    6 ar  
     9    5   20 1   
    10    6    7 ar  
    11    6   21 1   
    12    7    8 ar  
    13    7   22 1   
    14    8    9 ar  
    15    8   23 1   
    16    9   10 1   
    17   10   11 1   
    18   11   12 1   
    19   12   13 ar  
    20   12   18 ar  
    21   13   14 ar  
    22   13   24 1   
    23   14   15 ar  
    24   14   25 1   
    25   15   16 1   
    26   15   17 ar  
    27   16   26 1   
    28   16   27 1   
    29   16   28 1   
    30   17   18 ar  
    31   17   29 1   
    32   18   30 1   
@<TRIPOS>SUBSTRUCTURE
     1 431         1 TEMP              0 ****  ****    0 ROOT
