@<TRIPOS>MOLECULE
molecule
   30    32     1     0     0
SMALL
bcc


@<TRIPOS>ATOM
      1 CAB          0.0000     0.0000     0.0000 cc         1 431      -0.347200
      2 CAD          1.4140     0.0000     0.0000 c          1 431       0.586900
      3 OAH          2.0490     0.0010    -1.0410 o          1 431      -0.551100
      4 CAE          2.0910     0.0000     1.3130 ca         1 431      -0.228600
      5 CAN          3.4810     0.0010     1.4110 ca         1 431      -0.040000
      6 CAQ          4.0750     0.0020     2.6550 ca         1 431      -0.166000
      7 CAR          3.2960     0.0010     3.8020 ca         1 431      -0.076000
      8 CAO          1.9190     0.0000     3.7170 ca         1 431      -0.157000
      9 CAF          1.3010     0.0000     2.4730 ca         1 431       0.157100
     10 OAC         -0.0430    -0.0010     2.3680 os         1 431      -0.215200
     11 CAA         -0.6710     0.0060     1.1830 cd         1 431       0.213900
     12 CAG         -2.1480     0.0050     1.1610 ca         1 431      -0.079800
     13 CAI         -2.8670    -0.0030     2.3580 ca         1 431      -0.088000
     14 CAK         -4.2460    -0.0040     2.3310 ca         1 431      -0.134500
     15 CAM         -4.9170     0.0030     1.1200 ca         1 431      -0.059300
     16 CAP         -6.4240    -0.0050     1.0980 c3         1 431      -0.052800
     17 CAL         -4.2110     0.0110    -0.0700 ca         1 431      -0.134500
     18 CAJ         -2.8310     0.0180    -0.0570 ca         1 431      -0.088000
     19 H1          -0.5450     0.0060    -0.9360 ha         1 431       0.169000
     20 H2           4.0910     0.0010     0.5160 ha         1 431       0.159000
     21 H3           5.1550     0.0030     2.7370 ha         1 431       0.138000
     22 H4           3.7730     0.0020     4.7750 ha         1 431       0.139000
     23 H5           1.3210    -0.0000     4.6200 ha         1 431       0.146000
     24 H6          -2.3420    -0.0080     3.3060 ha         1 431       0.145000
     25 H7          -4.8050    -0.0100     3.2590 ha         1 431       0.138000
     26 H8          -6.7950     0.9740     1.3770 hc         1 431       0.047367
     27 H9          -6.7700    -0.2510     0.1010 hc         1 431       0.047367
     28 H10         -6.7920    -0.7430     1.8000 hc         1 431       0.047367
     29 H11         -4.7420     0.0190    -1.0130 ha         1 431       0.138000
     30 H12         -2.2800     0.0240    -0.9890 ha         1 431       0.145000
@<TRIPOS>BOND
     1    16    15 1   
     2    15    17 ar  
     3    15    14 ar  
     4    17    18 ar  
     5    14    13 ar  
     6    18    12 ar  
     7    13    12 ar  
     8    12    11 1   
     9    11    10 1   
    10    11     1 2   
    11    10     9 1   
    12     1     2 1   
    13     9     8 ar  
    14     9     4 ar  
    15     8     7 ar  
    16     2     4 1   
    17     2     3 2   
    18     4     5 ar  
    19     7     6 ar  
    20     5     6 ar  
    21     1    19 1   
    22     5    20 1   
    23     6    21 1   
    24     7    22 1   
    25     8    23 1   
    26    13    24 1   
    27    14    25 1   
    28    16    26 1   
    29    16    27 1   
    30    16    28 1   
    31    17    29 1   
    32    18    30 1   
@<TRIPOS>SUBSTRUCTURE
     1 431         1 TEMP              0 ****  ****    0 ROOT
