@<TRIPOS>MOLECULE
molecule
   65    67     1     0     0
SMALL
bcc


@<TRIPOS>ATOM
      1 C1A          0.0000     0.0000     0.0000 c          1 433       0.906600
      2 O1C          1.2080     0.0000     0.0000 o          1 433      -0.826800
      3 O1B         -0.6710     0.0000     1.1630 o          1 433      -0.826800
      4 C1D         -0.7540     0.0010    -1.3040 c3         1 433       0.033800
      5 C1X         -1.6330     1.2490    -1.3850 c3         1 433      -0.105600
      6 C1Y         -1.6320    -1.2480    -1.3850 c3         1 433      -0.105600
      7 O1E          0.1740     0.0010    -2.3910 os         1 433      -0.295900
      8 C1F         -0.5570     0.0910    -3.5330 ca         1 433       0.138100
      9 C1G         -0.8430     1.3320    -4.0790 ca         1 433      -0.150000
     10 C1I         -1.5860     1.4210    -5.2400 ca         1 433      -0.124000
     11 C1K         -2.0460     0.2730    -5.8560 ca         1 433      -0.125300
     12 C1J         -1.7620    -0.9670    -5.3150 ca         1 433      -0.124000
     13 C1H         -1.0150    -1.0600    -4.1570 ca         1 433      -0.150000
     14 C1L         -2.8570     0.3720    -7.1230 c3         1 433      -0.026100
     15 C1M         -1.9200     0.3410    -8.3320 c3         1 433      -0.104400
     16 C1N         -2.7440     0.4420    -9.6170 c3         1 433       0.092000
     17 N2B         -1.8470     0.4120   -10.7750 n          1 433      -0.497800
     18 C2C         -1.4930    -0.8670   -11.3940 c3         1 433       0.132000
     19 C2A         -1.3500     1.5610   -11.2710 c          1 433       0.789100
     20 O2A         -0.6060     1.5360   -12.2320 o          1 433      -0.654100
     21 N3A         -1.6760     2.7380   -10.7030 ns         1 433      -0.483100
     22 C3B         -1.0600     3.9190   -11.1330 ca         1 433       0.104600
     23 C3C          0.1900     3.8710   -11.7350 ca         1 433      -0.131000
     24 C3E          0.7970     5.0370   -12.1600 ca         1 433      -0.100000
     25 C3G          0.1610     6.2530   -11.9850 ca         1 433      -0.145000
     26 C3F         -1.0850     6.3060   -11.3860 ca         1 433       0.052400
     27 Cl3F        -1.8790     7.8340   -11.1690 cl         1 433      -0.094400
     28 C3D         -1.6990     5.1400   -10.9630 ca         1 433      -0.020600
     29 Cl3D        -3.2630     5.2060   -10.2120 cl         1 433      -0.097400
     30 C2D         -2.5050    -1.2010   -12.4920 c3         1 433      -0.063100
     31 C2E         -2.1400    -2.5180   -13.1280 ca         1 433      -0.114300
     32 C2F         -1.2990    -2.5460   -14.2240 ca         1 433       0.051400
     33 Cl2F        -0.6570    -1.0660   -14.8640 cl         1 433      -0.077400
     34 C2H         -0.9600    -3.7560   -14.8050 ca         1 433      -0.138000
     35 C2J         -1.4700    -4.9350   -14.2960 ca         1 433      -0.100000
     36 C2I         -2.3150    -4.9080   -13.2040 ca         1 433      -0.166000
     37 C2G         -2.6510    -3.7000   -12.6180 ca         1 433       0.142900
     38 F2G         -3.4780    -3.6730   -11.5500 f          1 433      -0.134900
     39 H1X1        -2.1840     1.3630    -0.4600 hc         1 433       0.034700
     40 H1X2        -2.3280     1.1480    -2.2100 hc         1 433       0.034700
     41 H1X3        -1.0090     2.1200    -1.5440 hc         1 433       0.034700
     42 H1Y1        -1.0200    -2.1030    -1.6450 hc         1 433       0.034700
     43 H1Y2        -2.1050    -1.4200    -0.4260 hc         1 433       0.034700
     44 H1Y3        -2.3940    -1.1060    -2.1430 hc         1 433       0.034700
     45 H1G1        -0.4250     2.2280    -3.6350 ha         1 433       0.144000
     46 H1I1        -1.8140     2.3910    -5.6640 ha         1 433       0.115500
     47 H1J1        -2.1320    -1.8650    -5.7940 ha         1 433       0.115500
     48 H1H1        -0.7280    -2.0330    -3.7750 ha         1 433       0.144000
     49 H1L1        -3.4150     1.3010    -7.1230 hc         1 433       0.039700
     50 H1L2        -3.5450    -0.4620    -7.1780 hc         1 433       0.039700
     51 H1M1        -1.3620    -0.5870    -8.3330 hc         1 433       0.057200
     52 H1M2        -1.2320     1.1760    -8.2780 hc         1 433       0.057200
     53 H1N1        -3.3030     1.3710    -9.6170 h1         1 433       0.049200
     54 H1N2        -3.4320    -0.3930    -9.6710 h1         1 433       0.049200
     55 H2C1        -0.5020    -0.7970   -11.8260 h1         1 433       0.068200
     56 H2C2        -1.5050    -1.6470   -10.6430 h1         1 433       0.068200
     57 HN31        -2.3770     2.7710    -9.9900 hn         1 433       0.338500
     58 H3C1         0.6890     2.9190   -11.8720 ha         1 433       0.188000
     59 H3E1         1.7720     5.0000   -12.6300 ha         1 433       0.141000
     60 H3G1         0.6390     7.1650   -12.3200 ha         1 433       0.144000
     61 H2D1        -3.4960    -1.2720   -12.0600 hc         1 433       0.069200
     62 H2D2        -2.4930    -0.4210   -13.2430 hc         1 433       0.069200
     63 H2H1        -0.2990    -3.7780   -15.6630 ha         1 433       0.146000
     64 H2J1        -1.2060    -5.8810   -14.7530 ha         1 433       0.140000
     65 H2I1        -2.7150    -5.8330   -12.8060 ha         1 433       0.148000
@<TRIPOS>BOND
     1     1     2 1
     2     1     3 1
     3     1     4 1
     4     4     5 1
     5     4     6 1
     6     4     7 1
     7     5    39 1
     8     5    40 1
     9     5    41 1
    10     6    42 1
    11     6    43 1
    12     6    44 1
    13     7     8 1
    14     8     9 ar
    15     8    13 ar
    16     9    10 ar
    17     9    45 1
    18    10    11 ar
    19    10    46 1
    20    11    12 ar
    21    11    14 1
    22    12    13 ar
    23    12    47 1
    24    13    48 1
    25    14    15 1
    26    14    49 1
    27    14    50 1
    28    15    16 1
    29    15    51 1
    30    15    52 1
    31    16    17 1
    32    16    53 1
    33    16    54 1
    34    17    18 1
    35    17    19 1
    36    18    30 1
    37    18    55 1
    38    18    56 1
    39    19    20 2
    40    19    21 1
    41    21    22 1
    42    21    57 1
    43    22    23 ar
    44    22    28 ar
    45    23    24 ar
    46    23    58 1
    47    24    25 ar
    48    24    59 1
    49    25    26 ar
    50    25    60 1
    51    26    27 1
    52    26    28 ar
    53    28    29 1
    54    30    31 1
    55    30    61 1
    56    30    62 1
    57    31    32 ar
    58    31    37 ar
    59    32    33 1
    60    32    34 ar
    61    34    35 ar
    62    34    63 1
    63    35    36 ar
    64    35    64 1
    65    36    37 ar
    66    36    65 1
    67    37    38 1
@<TRIPOS>SUBSTRUCTURE
     1 433         1 TEMP              0 ****  ****    0 ROOT
