@<TRIPOS>MOLECULE
molecule
   59    64     1     0     0
SMALL
bcc


@<TRIPOS>ATOM
      1 C1           0.0000     0.0000     0.0000 c3         1 434       0.188400
      2 C2          -0.5310    -0.5250    -1.3090 ca         1 434      -0.076300
      3 O4           1.4440     0.0000     0.0000 os         1 434      -0.370600
      4 C5           1.8610     0.0000     1.3690 c3         1 434      -0.034200
      5 C6           0.7390    -0.6370     2.2030 c3         1 434      -0.162700
      6 C8          -0.3640    -0.9560     1.1640 c3         1 434      -0.150700
      7 C10          3.1460    -0.7640     1.5410 c          1 434       0.624700
      8 C11          4.1360     0.1720     2.1040 ca         1 434      -0.077600
      9 O12          3.3310    -1.9300     1.2650 o          1 434      -0.425100
     10 C13          2.1400     1.4010     1.8450 c          1 434       0.593700
     11 O14          1.3550     2.3250     1.8640 o          1 434      -0.532100
     12 C15          5.4740    -0.0190     2.4540 ca         1 434      -0.078000
     13 C17          6.2120     1.0260     2.9760 ca         1 434      -0.074300
     14 C19          5.6340     2.2730     3.1460 ca         1 434      -0.144000
     15 C21          4.3120     2.4840     2.8040 ca         1 434      -0.076000
     16 C23          3.5480     1.4390     2.2810 ca         1 434      -0.172600
     17 C24          1.2230    -1.9020     2.8640 c          1 434       0.898600
     18 O25          0.5680    -2.9150     2.7840 o          1 434      -0.803300
     19 O26          2.3830    -1.9050     3.5400 o          1 434      -0.803300
     20 C28         -0.2900    -2.3940     0.7210 c          1 434       0.715100
     21 O29          0.6880    -2.7960     0.1280 o          1 434      -0.585100
     22 N30         -1.3090    -3.2350     0.9860 ns         1 434      -0.461100
     23 C31         -1.2910    -4.5380     0.4770 ca         1 434       0.124600
     24 C33         -1.8360    -5.5790     1.2180 ca         1 434      -0.154500
     25 C35         -1.8200    -6.8640     0.7180 ca         1 434      -0.083000
     26 C37         -1.2570    -7.1180    -0.5300 ca         1 434      -0.176500
     27 C38         -1.2390    -8.5000    -1.0700 cc         1 434       0.396800
     28 C39         -0.7110    -6.0720    -1.2720 ca         1 434      -0.083000
     29 C41         -0.7330    -4.7880    -0.7710 ca         1 434      -0.154500
     30 N43         -0.9870    -9.5660    -0.3260 nc         1 434      -0.352000
     31 N44         -0.9910   -10.7380    -0.8500 nd         1 434      -0.155100
     32 S46         -1.3150   -10.5190    -2.3790 ss         1 434       0.117200
     33 C47         -1.4740    -8.7950    -2.3900 cd         1 434      -0.215400
     34 C49         -1.7610    -0.1020    -1.7760 ca         1 434      -0.111000
     35 C51         -2.2460    -0.5790    -2.9790 ca         1 434       0.017400
     36 C53         -1.5040    -1.4920    -3.7100 ca         1 434       0.030400
     37 C55         -0.2750    -1.9180    -3.2380 ca         1 434      -0.131000
     38 C57          0.2100    -1.4360    -2.0380 ca         1 434      -0.066000
     39 C3           7.6530     0.8100     3.3560 c3         1 434      -0.047800
     40 Cl1         -3.7870    -0.0430    -3.5690 cl         1 434      -0.112400
     41 Cl2         -2.1150    -2.0980    -5.2180 cl         1 434      -0.114400
     42 H1          -0.3770     0.9960     0.1980 h1         1 434       0.065700
     43 H6           0.3710     0.0660     2.9400 hc         1 434       0.070700
     44 H8          -1.3440    -0.7190     1.5610 hc         1 434       0.055700
     45 H15          5.9370    -0.9880     2.3090 ha         1 434       0.149000
     46 H19          6.2220     3.0880     3.5500 ha         1 434       0.121000
     47 H21          3.8690     3.4630     2.9410 ha         1 434       0.131000
     48 H30         -2.0920    -2.9180     1.5230 hn         1 434       0.316500
     49 H33         -2.2740    -5.3810     2.1890 ha         1 434       0.148500
     50 H35         -2.2450    -7.6760     1.2960 ha         1 434       0.128500
     51 H39         -0.2740    -6.2670    -2.2440 ha         1 434       0.128500
     52 H41         -0.3090    -3.9750    -1.3470 ha         1 434       0.148500
     53 H47         -1.6990    -8.1290    -3.2140 h4         1 434       0.200000
     54 H49         -2.3410     0.6120    -1.2040 ha         1 434       0.144000
     55 H55          0.3060    -2.6320    -3.8100 ha         1 434       0.148000
     56 H57          1.1720    -1.7710    -1.6690 ha         1 434       0.201000
     57 H31          8.2580     0.7470     2.4590 hc         1 434       0.040033
     58 H32          7.9950     1.6400     3.9640 hc         1 434       0.040033
     59 H33A         7.7440    -0.1110     3.9180 hc         1 434       0.040033
@<TRIPOS>BOND
     1     1     2 1
     2     1     3 1
     3     1     6 1
     4     1    42 1
     5     2    34 ar
     6     2    38 ar
     7     3     4 1
     8     4     5 1
     9     4     7 1
    10     4    10 1
    11     5     6 1
    12     5    17 1
    13     5    43 1
    14     6    20 1
    15     6    44 1
    16     7     8 1
    17     7     9 2
    18     8    12 ar
    19     8    16 ar
    20    10    11 2
    21    10    16 1
    22    12    13 ar
    23    12    45 1
    24    13    14 ar
    25    13    39 1
    26    14    15 ar
    27    14    46 1
    28    15    16 ar
    29    15    47 1
    30    17    18 1
    31    17    19 1
    32    20    21 2
    33    20    22 1
    34    22    23 1
    35    22    48 1
    36    23    24 ar
    37    23    29 ar
    38    24    25 ar
    39    24    49 1
    40    25    26 ar
    41    25    50 1
    42    26    27 1
    43    26    28 ar
    44    27    30 1
    45    27    33 2
    46    28    29 ar
    47    28    51 1
    48    29    52 1
    49    30    31 2
    50    31    32 1
    51    32    33 1
    52    33    53 1
    53    34    35 ar
    54    34    54 1
    55    35    36 ar
    56    35    40 1
    57    36    37 ar
    58    36    41 1
    59    37    38 ar
    60    37    55 1
    61    38    56 1
    62    39    57 1
    63    39    58 1
    64    39    59 1
@<TRIPOS>SUBSTRUCTURE
     1 434         1 TEMP              0 ****  ****    0 ROOT
