@<TRIPOS>MOLECULE
435
   45    47     1     0     0
SMALL
bcc


@<TRIPOS>ATOM
      1 C1           0.0000     0.0000     0.0000 ca         1 435      -0.133300
      2 C2           1.3770     0.0000     0.0000 ca         1 435      -0.050000
      3 C3           2.0750     0.0000     1.2120 ca         1 435       0.039400
      4 C4           1.3680    -0.0000     2.4200 ca         1 435      -0.050000
      5 C5          -0.0080    -0.0000     2.4100 ca         1 435      -0.133300
      6 C6          -0.6980    -0.0000     1.2030 ca         1 435       0.152100
      7 O7          -2.0550     0.0000     1.1980 oh         1 435      -0.497100
      8 C8          -0.7700    -0.0000     3.7110 c3         1 435       0.071700
      9 N9           3.4390    -0.0010     1.2170 ne         1 435      -0.138400
     10 N10          4.0800    -0.0010     2.3360 nf         1 435      -0.199400
     11 C11          5.4470    -0.0020     2.3410 ca         1 435       0.123400
     12 C12          6.1460    -0.0020     3.5510 ca         1 435      -0.116500
     13 C13          7.5240    -0.0020     3.5490 ca         1 435       0.003000
     14 C14          8.2180    -0.0020     2.3510 ca         1 435      -0.145500
     15 C15          7.5330    -0.0020     1.1470 ca         1 435       0.003000
     16 C16          6.1540    -0.0080     1.1350 ca         1 435      -0.116500
     17 S17          9.9790    -0.0020     2.3560 sy         1 435       1.034200
     18 O18         10.3850     0.5430     1.1080 o          1 435      -0.575300
     19 O19         10.3760     0.5430     3.6080 o          1 435      -0.575300
     20 N20         10.4700    -1.5840     2.3590 nu         1 435      -0.483800
     21 C21         10.1940    -2.3980     1.2660 ca         1 435       0.558200
     22 N22          9.5380    -1.9030     0.2280 nb         1 435      -0.626000
     23 C23          9.2550    -2.6430    -0.8280 ca         1 435       0.450200
     24 C24          9.6370    -3.9680    -0.8870 ca         1 435      -0.265300
     25 C25         10.3270    -4.5260     0.1820 ca         1 435      -0.027000
     26 C26         10.6130    -3.7240     1.2720 ca         1 435      -0.272300
     27 C27         -0.7530     0.0060    -1.3060 c3         1 435       0.071700
     28 H2           1.9190     0.0000    -0.9380 ha         1 435       0.124500
     29 H4           1.9030    -0.0000     3.3610 ha         1 435       0.124500
     30 HO7         -2.3700    -0.8890     1.1960 ho         1 435       0.406000
     31 H8          -1.2710    -0.9530     3.8360 hc         1 435       0.010533
     32 H8A         -0.0820     0.1570     4.5320 hc         1 435       0.010533
     33 H8B         -1.5060     0.7950     3.6980 hc         1 435       0.010533
     34 H12          5.6050    -0.0010     4.4900 ha         1 435       0.123500
     35 H13          8.0660    -0.0020     4.4860 ha         1 435       0.133500
     36 H15          8.0810    -0.0050     0.2130 ha         1 435       0.133500
     37 H16          5.6200    -0.0080     0.1930 ha         1 435       0.123500
     38 HN20        11.0040    -1.9410     3.1260 hn         1 435       0.347800
     39 H23          8.7170    -2.2040    -1.6600 h4         1 435      -0.019900
     40 H24          9.3980    -4.5680    -1.7570 ha         1 435       0.116000
     41 H25         10.6390    -5.5630     0.1590 ha         1 435       0.107000
     42 H26         11.1500    -4.1270     2.1230 ha         1 435       0.117000
     43 H27         -0.0580     0.1540    -2.1230 hc         1 435       0.010533
     44 H27A        -1.4790     0.8110    -1.3000 hc         1 435       0.010533
     45 H27B        -1.2640    -0.9400    -1.4330 hc         1 435       0.010533
@<TRIPOS>BOND
     1     1     2 ar  
     2     1     6 ar  
     3     1    27 1   
     4     2     3 ar  
     5     2    28 1   
     6     3     4 ar  
     7     3     9 1   
     8     4     5 ar  
     9     4    29 1   
    10     5     6 ar  
    11     5     8 1   
    12     6     7 1   
    13     7    30 1   
    14     8    31 1   
    15     8    32 1   
    16     8    33 1   
    17     9    10 2   
    18    10    11 1   
    19    11    12 ar  
    20    11    16 ar  
    21    12    13 ar  
    22    12    34 1   
    23    13    14 ar  
    24    13    35 1   
    25    14    15 ar  
    26    14    17 1   
    27    15    16 ar  
    28    15    36 1   
    29    16    37 1   
    30    17    18 2   
    31    17    19 2   
    32    17    20 1   
    33    20    21 1   
    34    20    38 1   
    35    21    22 ar  
    36    21    26 ar  
    37    22    23 ar  
    38    23    24 ar  
    39    23    39 1   
    40    24    25 ar  
    41    24    40 1   
    42    25    26 ar  
    43    25    41 1   
    44    26    42 1   
    45    27    43 1   
    46    27    44 1   
    47    27    45 1   
@<TRIPOS>SUBSTRUCTURE
     1 435         1 TEMP              0 ****  ****    0 ROOT
