@<TRIPOS>MOLECULE
437
   57    60     1     0     0
SMALL
bcc


@<TRIPOS>ATOM
      1 C1           0.0000     0.0000     0.0000 ca         1 437      -0.110000
      2 C2           1.3620     0.0000     0.0000 ca         1 437      -0.074000
      3 C3           2.0800     0.0000     1.1920 ca         1 437      -0.120000
      4 C4          -0.7010     0.0020     1.2180 ca         1 437      -0.019000
      5 C5           0.0190     0.0040     2.4370 ca         1 437      -0.047000
      6 C6           1.4300     0.0030     2.4070 ca         1 437      -0.076400
      7 N7           2.1600     0.0030     3.5970 ns         1 437      -0.037100
      8 C8           3.4170     0.4910     3.6160 c          1 437       0.554100
      9 O9           3.8760     1.0250     2.6260 o          1 437      -0.668100
     10 N10          4.1620     0.3890     4.7350 ns         1 437      -0.024100
     11 C11          5.4610     0.8950     4.7550 cc         1 437      -0.233700
     12 C12          6.1000     1.5140     3.7250 cd         1 437      -0.332300
     13 C13          7.3810     1.8640     4.1630 cd         1 437       0.393600
     14 C14          8.4300     2.5700     3.3440 c3         1 437      -0.081300
     15 C15          8.0640     4.0510     3.2130 c3         1 437       0.006900
     16 C16          9.7890     2.4400     4.0320 c3         1 437       0.006900
     17 C17          8.5000     1.9380     1.9520 c3         1 437       0.006900
     18 N18          7.5150     1.4750     5.4060 nc         1 437      -0.653800
     19 N19          6.3200     0.8670     5.8100 na         1 437       0.579300
     20 C20          6.0570     0.3210     7.0740 ca         1 437      -0.124200
     21 C21          7.0720    -0.3050     7.7850 ca         1 437      -0.119000
     22 C22          4.7840     0.4120     7.6210 ca         1 437      -0.119000
     23 C23          4.5280    -0.1260     8.8650 ca         1 437      -0.057500
     24 C24          5.5390    -0.7550     9.5700 ca         1 437      -0.108300
     25 C25          5.2570    -1.3410    10.9300 c3         1 437       0.283700
     26 C26          6.8100    -0.8420     9.0310 ca         1 437      -0.057500
     27 O27          4.8380    -2.6990    10.7850 oh         1 437      -0.588800
     28 C28         -0.6830     0.0060     3.6530 ca         1 437      -0.106000
     29 C29         -2.0450     0.0080     3.6450 ca         1 437      -0.093000
     30 C30         -2.7540     0.0050     2.4450 ca         1 437      -0.104000
     31 C31         -2.1070     0.0040     1.2480 ca         1 437      -0.081000
     32 H1          -0.5420     0.0000    -0.9380 ha         1 437       0.106000
     33 H2           1.8950    -0.0020    -0.9430 ha         1 437       0.103000
     34 H3           3.1630    -0.0000     1.1640 ha         1 437       0.157000
     35 HN7          1.7670    -0.4000     4.4250 hn         1 437       0.164500
     36 H12          5.7100     1.6510     2.7240 ha         1 437       0.193000
     37 H15          8.8590     4.5750     2.6960 hc         1 437       0.007811
     38 H15A         7.1430     4.1470     2.6510 hc         1 437       0.007811
     39 H15B         7.9320     4.4780     4.2000 hc         1 437       0.007811
     40 H16         10.0260     1.3920     4.1700 hc         1 437       0.007811
     41 H16A         9.7540     2.9310     4.9970 hc         1 437       0.007811
     42 H16B        10.5510     2.9050     3.4180 hc         1 437       0.007811
     43 H17          8.5510     0.8600     2.0460 hc         1 437       0.007811
     44 H17A         7.6170     2.2100     1.3870 hc         1 437       0.007811
     45 H17B         9.3830     2.2970     1.4360 hc         1 437       0.007811
     46 H21          8.0670    -0.3740     7.3640 ha         1 437       0.121500
     47 H22          3.9920     0.9040     7.0700 ha         1 437       0.121500
     48 H23          3.5350    -0.0550     9.2920 ha         1 437       0.109500
     49 H25          6.1560    -1.3020    11.5330 h1         1 437      -0.010800
     50 H25A         4.4730    -0.7710    11.4130 h1         1 437      -0.010800
     51 H26          7.6000    -1.3330     9.5860 ha         1 437       0.109500
     52 HO27         4.6950    -3.0760    11.6380 ho         1 437       0.391000
     53 H28         -0.1440     0.0080     4.5930 ha         1 437       0.096000
     54 H29         -2.5840     0.0090     4.5840 ha         1 437       0.100000
     55 H30         -3.8370     0.0070     2.4660 ha         1 437       0.102000
     56 H31         -2.6720     0.0020     0.3240 ha         1 437       0.107000
     57 H261         3.8000    -0.0930     5.5340 hn         1 437       0.171500
@<TRIPOS>BOND
     1     1     2 ar  
     2     1     4 ar  
     3     1    32 1   
     4     2     3 ar  
     5     2    33 1   
     6     3     6 ar  
     7     3    34 1   
     8     4     5 ar  
     9     4    31 ar  
    10     5     6 ar  
    11     5    28 ar  
    12     6     7 1   
    13     7     8 1   
    14     7    35 1   
    15     8     9 2   
    16     8    10 1   
    17    10    11 1   
    18    10    57 1   
    19    11    12 2   
    20    11    19 1   
    21    12    13 1   
    22    12    36 1   
    23    13    14 1   
    24    13    18 2   
    25    14    15 1   
    26    14    16 1   
    27    14    17 1   
    28    15    37 1   
    29    15    38 1   
    30    15    39 1   
    31    16    40 1   
    32    16    41 1   
    33    16    42 1   
    34    17    43 1   
    35    17    44 1   
    36    17    45 1   
    37    18    19 1   
    38    19    20 1   
    39    20    21 ar  
    40    20    22 ar  
    41    21    26 ar  
    42    21    46 1   
    43    22    23 ar  
    44    22    47 1   
    45    23    24 ar  
    46    23    48 1   
    47    24    25 1   
    48    24    26 ar  
    49    25    27 1   
    50    25    49 1   
    51    25    50 1   
    52    26    51 1   
    53    27    52 1   
    54    28    29 ar  
    55    28    53 1   
    56    29    30 ar  
    57    29    54 1   
    58    30    31 ar  
    59    30    55 1   
    60    31    56 1   
@<TRIPOS>SUBSTRUCTURE
     1 437         1 TEMP              0 ****  ****    0 ROOT
