@<TRIPOS>MOLECULE
438
   79    83     1     0     0
SMALL
bcc


@<TRIPOS>ATOM
      1 N1           0.0000     0.0000     0.0000 nz         1 438       0.069400
      2 C2           1.4690     0.0000     0.0000 c3         1 438       0.039100
      3 C3           2.6660     1.2070     3.3800 cp         1 438       0.038000
      4 C4           2.8960     0.0000     4.0350 ca         1 438      -0.060000
      5 C5           2.6640    -1.1930     3.3800 ca         1 438      -0.074000
      6 C6           2.2020    -1.1910     2.0770 ca         1 438      -0.100000
      7 C7           1.9720     0.0050     1.4210 ca         1 438      -0.208300
      8 C8           2.2010     1.2040     2.0650 ca         1 438      -0.090000
      9 C9           2.9090     2.4930     4.0800 cp         1 438      -0.081000
     10 C10          3.3680     2.4960     5.3940 ca         1 438      -0.119000
     11 C11          3.5930     3.7000     6.0430 ca         1 438       0.129100
     12 C12          3.3610     4.8980     5.3820 ca         1 438      -0.111000
     13 C13          2.9050     4.8960     4.0770 ca         1 438      -0.051000
     14 C14          2.6840     3.7010     3.4210 ca         1 438      -0.119000
     15 O15          4.0410     3.7070     7.3260 os         1 438      -0.320400
     16 N16          2.9560     5.7350     7.6200 nb         1 438      -0.697000
     17 C17          3.7450     4.7840     8.0990 ca         1 438       0.602600
     18 C18          4.2710     4.8740     9.3780 ca         1 438      -0.104400
     19 C19          3.9600     5.9840    10.1620 ca         1 438       0.042600
     20 C20          3.1270     6.9640     9.6240 ca         1 438       0.007600
     21 C21          2.6390     6.8030     8.3370 ca         1 438       0.639600
     22 F22          5.0730     3.8990     9.8580 f          1 438      -0.117900
     23 N23          4.4700     6.1100    11.4550 nh         1 438      -0.380000
     24 F24          2.7980     8.0570    10.3480 f          1 438      -0.085900
     25 O25          1.8280     7.7510     7.8030 os         1 438      -0.224400
     26 C26          1.2520     7.4950     6.6020 ca         1 438       0.148100
     27 C27          0.7920     6.2240     6.3070 ca         1 438      -0.250000
     28 C28          0.2040     5.9680     5.0750 ca         1 438       0.057600
     29 N29         -0.2590     4.6900     4.7800 nh         1 438      -0.413000
     30 C30          0.0760     6.9870     4.1330 ca         1 438      -0.232000
     31 C31          0.5280     8.2440     4.4110 ca         1 438      -0.007000
     32 C32          1.1170     8.5200     5.6500 ca         1 438      -0.136600
     33 C33          1.5970     9.8770     5.9540 c          1 438       0.968200
     34 O34          1.4650    10.8580     5.0400 o          1 438      -0.868800
     35 O35          2.1130    10.1130     7.0290 o          1 438      -0.868800
     36 C36         -0.2010     3.6380     5.7970 c3         1 438       0.216100
     37 C37         -0.8060     4.3970     3.4530 c3         1 438       0.216100
     38 C38          4.0390     4.9860    12.3050 c3         1 438       0.141800
     39 C39          5.3150     4.3170    12.8590 c3         1 438       0.104500
     40 C40          6.3760     5.4430    12.7500 c3         1 438      -0.029400
     41 C41          5.9470     6.1500    11.4400 c3         1 438       0.142800
     42 N42          5.1250     3.9160    14.2600 n3         1 438      -0.530600
     43 C43          4.0870     2.8840    14.3760 c3         1 438       0.178600
     44 C44          6.3900     3.4610    14.8530 c3         1 438       0.178600
     45 HN1         -0.3340     0.9330     0.1430 hn         1 438       0.222133
     46 HN1A        -0.3340    -0.3420    -0.8790 hn         1 438       0.222133
     47 H2           1.8300     0.8830    -0.5140 hx         1 438       0.078700
     48 H2A          1.8300    -0.8860    -0.5080 hx         1 438       0.078700
     49 H8           2.0210     2.1400     1.5500 ha         1 438       0.123000
     50 H10          3.5490     1.5600     5.9090 ha         1 438       0.115000
     51 H12          3.5350     5.8380     5.8910 ha         1 438       0.186000
     52 H13          2.7280     5.8340     3.5650 ha         1 438       0.132000
     53 H14          2.3270     3.7030     2.3990 ha         1 438       0.093000
     54 H27          0.8080     5.4530     7.0690 ha         1 438       0.124000
     55 H30         -0.3810     6.7790     3.1730 ha         1 438       0.096000
     56 H31          0.4230     9.0320     3.6740 ha         1 438       0.136000
     57 H36         -0.8530     3.8960     6.6220 h1         1 438      -0.005800
     58 H36A        -0.5230     2.6990     5.3630 h1         1 438      -0.005800
     59 H36B         0.8160     3.5390     6.1570 h1         1 438      -0.005800
     60 H37         -0.1030     4.7180     2.6930 h1         1 438      -0.005800
     61 H37A        -0.9750     3.3310     3.3590 h1         1 438      -0.005800
     62 H37B        -1.7430     4.9250     3.3230 h1         1 438      -0.005800
     63 H38          3.4770     4.2730    11.7150 h1         1 438       0.031200
     64 H38A         3.4330     5.3560    13.1240 h1         1 438       0.031200
     65 H39          5.5960     3.4690    12.2460 h1         1 438       0.023700
     66 H40          6.3080     6.1190    13.5930 hc         1 438       0.031700
     67 H40A         7.3710     5.0260    12.6550 hc         1 438       0.031700
     68 H41          6.3290     5.6120    10.5800 h1         1 438       0.027200
     69 H41A         6.2960     7.1760    11.4350 h1         1 438       0.027200
     70 H43          4.1230     2.4460    15.3660 h1         1 438       0.001367
     71 H43A         3.1140     3.3310    14.2140 h1         1 438       0.001367
     72 H43B         4.2590     2.1140    13.6340 h1         1 438       0.001367
     73 H44          6.1850     2.9190    15.7680 h1         1 438       0.001367
     74 H44A         6.9030     2.8110    14.1550 h1         1 438       0.001367
     75 H44B         7.0140     4.3180    15.0740 h1         1 438       0.001367
     76 H4           3.2580    -0.0030     5.0560 ha         1 438       0.135000
     77 H5           2.8430    -2.1320     3.8890 ha         1 438       0.119000
     78 H131        -0.3340    -0.6040     0.7250 hn         1 438       0.222133
     79 H6           2.0220    -2.1300     1.5670 ha         1 438       0.101000
@<TRIPOS>BOND
     1     1     2 1   
     2     1    45 1   
     3     1    46 1   
     4     1    78 1   
     5     2     7 1   
     6     2    47 1   
     7     2    48 1   
     8     3     4 ar  
     9     3     8 ar  
    10     3     9 1   
    11     4     5 ar  
    12     4    76 1   
    13     5     6 ar  
    14     5    77 1   
    15     6     7 ar  
    16     6    79 1   
    17     7     8 ar  
    18     8    49 1   
    19     9    10 ar  
    20     9    14 ar  
    21    10    11 ar  
    22    10    50 1   
    23    11    12 ar  
    24    11    15 1   
    25    12    13 ar  
    26    12    51 1   
    27    13    14 ar  
    28    13    52 1   
    29    14    53 1   
    30    15    17 1   
    31    16    17 ar  
    32    16    21 ar  
    33    17    18 ar  
    34    18    19 ar  
    35    18    22 1   
    36    19    20 ar  
    37    19    23 1   
    38    20    21 ar  
    39    20    24 1   
    40    21    25 1   
    41    23    38 1   
    42    23    41 1   
    43    25    26 1   
    44    26    27 ar  
    45    26    32 ar  
    46    27    28 ar  
    47    27    54 1   
    48    28    29 1   
    49    28    30 ar  
    50    29    36 1   
    51    29    37 1   
    52    30    31 ar  
    53    30    55 1   
    54    31    32 ar  
    55    31    56 1   
    56    32    33 1   
    57    33    34 1   
    58    33    35 1   
    59    36    57 1   
    60    36    58 1   
    61    36    59 1   
    62    37    60 1   
    63    37    61 1   
    64    37    62 1   
    65    38    39 1   
    66    38    63 1   
    67    38    64 1   
    68    39    40 1   
    69    39    42 1   
    70    39    65 1   
    71    40    41 1   
    72    40    66 1   
    73    40    67 1   
    74    41    68 1   
    75    41    69 1   
    76    42    43 1   
    77    42    44 1   
    78    43    70 1   
    79    43    71 1   
    80    43    72 1   
    81    44    73 1   
    82    44    74 1   
    83    44    75 1   
@<TRIPOS>SUBSTRUCTURE
     1 438         1 TEMP              0 ****  ****    0 ROOT
