@<TRIPOS>MOLECULE
molecule
   59    63     1     0     0
SMALL
bcc


@<TRIPOS>ATOM
      1 O3           0.0000     0.0000     0.0000 o          1 439      -0.604500
      2 C25          1.2130     0.0000     0.0000 c          1 439       0.678500
      3 N2           1.9830     0.0000     1.1010 n          1 439      -0.374000
      4 C8           1.4890     0.0080     2.4110 ca         1 439       0.076600
      5 C7           0.1260     0.1370     2.6400 ca         1 439      -0.152000
      6 C9           2.3590    -0.1190     3.4850 ca         1 439      -0.179000
      7 C10          1.8660    -0.1120     4.7740 ca         1 439      -0.088000
      8 C11          0.5060     0.0220     5.0010 ca         1 439      -0.115300
      9 C6          -0.3640     0.1440     3.9330 ca         1 439      -0.046300
     10 C5          -1.7840     0.2710     4.4420 c3         1 439      -0.029100
     11 C4          -1.6470     0.6520     5.9310 c3         1 439      -0.077400
     12 C3          -0.2710     0.0580     6.3000 c3         1 439       0.220800
     13 N1          -0.4330    -1.3000     6.8350 n3         1 439      -0.721600
     14 C2           0.8680    -1.9630     6.9930 c3         1 439       0.150100
     15 C1          -1.1720    -1.2820     8.1040 c3         1 439       0.150100
     16 C14          2.0790    -0.0050    -1.2400 c3         1 439       0.160500
     17 C13          3.4760     0.4160    -0.7290 c3         1 439      -0.100400
     18 C12          3.4090    -0.0100     0.7550 c3         1 439       0.091000
     19 N3           1.5780     0.9620    -2.2200 n7         1 439      -0.895100
     20 S1           0.5860     0.4590    -3.4480 sy         1 439       1.423200
     21 O1           0.2510     1.6210    -4.1940 o          1 439      -0.636800
     22 O2           1.2080    -0.6810    -4.0240 o          1 439      -0.636800
     23 C15         -0.9100    -0.1080    -2.7100 ca         1 439      -0.291500
     24 C24         -1.9340     0.7680    -2.5110 ca         1 439       0.020000
     25 C23         -3.1280     0.3190    -1.9240 ca         1 439      -0.062000
     26 C18         -3.2490    -1.0420    -1.5470 ca         1 439       0.017000
     27 C17         -2.1720    -1.9170    -1.7700 ca         1 439      -0.122000
     28 C16         -1.0320    -1.4470    -2.3460 ca         1 439      -0.038000
     29 C22         -4.2050     1.1940    -1.7010 ca         1 439      -0.088000
     30 C21         -5.3480     0.7240    -1.1300 ca         1 439      -0.134000
     31 C20         -5.4670    -0.6150    -0.7600 ca         1 439       0.049400
     32 Cl1         -6.9410    -1.1730    -0.0330 cl         1 439      -0.108400
     33 C19         -4.4440    -1.4920    -0.9610 ca         1 439      -0.124000
     34 H14          2.1180    -1.0000    -1.6670 h1         1 439       0.104700
     35 H121         3.9480     0.7000     1.3720 h1         1 439       0.059200
     36 H122         3.8160    -1.0060     0.8760 h1         1 439       0.059200
     37 H7          -0.5550     0.2470     1.8040 ha         1 439       0.182000
     38 H9           3.4140    -0.2940     3.3100 ha         1 439       0.129000
     39 H10          2.5450    -0.2110     5.6120 ha         1 439       0.129000
     40 H3           0.2310     0.6950     7.0190 h1         1 439       0.029700
     41 H51C        -2.3030    -0.6740     4.3440 hc         1 439       0.059700
     42 H52C        -2.3060     1.0520     3.9030 hc         1 439       0.059700
     43 H41C        -2.4260     0.1730     6.5110 hc         1 439       0.056700
     44 H42C        -1.6280     1.7300     6.0390 hc         1 439       0.056700
     45 H21C         1.5820    -1.2640     7.4110 h1         1 439       0.032533
     46 H22C         0.7630    -2.8120     7.6590 h1         1 439       0.032533
     47 H23C         1.2200    -2.3040     6.0270 h1         1 439       0.032533
     48 H11C        -0.8610    -2.1210     8.7150 h1         1 439       0.032533
     49 H12C        -0.9650    -0.3570     8.6290 h1         1 439       0.032533
     50 H13C        -2.2340    -1.3540     7.9050 h1         1 439       0.032533
     51 H131         3.6120     1.4880    -0.8170 hc         1 439       0.070700
     52 H132         4.2570    -0.1250    -1.2500 hc         1 439       0.070700
     53 HA           1.8670     1.9190    -2.1710 hn         1 439       0.459800
     54 H24         -1.7890     1.8240    -2.7060 ha         1 439       0.149000
     55 H16         -0.2080    -2.1270    -2.5280 ha         1 439       0.142000
     56 H22         -4.1270     2.2360    -1.9840 ha         1 439       0.142000
     57 H17         -2.2520    -2.9610    -1.4920 ha         1 439       0.139000
     58 H19         -4.5500    -2.5290    -0.6680 ha         1 439       0.150000
     59 H21         -6.1770     1.4010    -0.9600 ha         1 439       0.144000
@<TRIPOS>BOND
     1     1     2 2   
     2     2     3 1   
     3     2    16 1   
     4     3     4 1   
     5     3    18 1   
     6     4     5 ar  
     7     4     6 ar  
     8     5     9 ar  
     9     6     7 ar  
    10     7     8 ar  
    11     8     9 ar  
    12     8    12 1   
    13     9    10 1   
    14    10    11 1   
    15    11    12 1   
    16    12    13 1   
    17    13    14 1   
    18    13    15 1   
    19    16    17 1   
    20    16    19 1   
    21    17    18 1   
    22    19    20 1   
    23    20    21 2   
    24    20    22 2   
    25    20    23 1   
    26    23    24 ar  
    27    23    28 ar  
    28    24    25 ar  
    29    25    26 ar  
    30    25    29 ar  
    31    26    27 ar  
    32    26    33 ar  
    33    27    28 ar  
    34    29    30 ar  
    35    30    31 ar  
    36    31    32 1   
    37    31    33 ar  
    38    16    34 1   
    39    18    35 1   
    40    18    36 1   
    41     5    37 1   
    42     6    38 1   
    43     7    39 1   
    44    12    40 1   
    45    10    41 1   
    46    10    42 1   
    47    11    43 1   
    48    11    44 1   
    49    14    45 1   
    50    14    46 1   
    51    14    47 1   
    52    15    48 1   
    53    15    49 1   
    54    15    50 1   
    55    17    51 1   
    56    17    52 1   
    57    19    53 1   
    58    24    54 1   
    59    28    55 1   
    60    29    56 1   
    61    27    57 1   
    62    33    58 1   
    63    30    59 1   
@<TRIPOS>SUBSTRUCTURE
     1 439         1 TEMP              0 ****  ****    0 ROOT
