@<TRIPOS>MOLECULE
molecule
   41    44     1     0     0
SMALL
bcc


@<TRIPOS>ATOM
      1 C1           0.0000     0.0000     0.0000 ca         1 43A       0.085100
      2 C2           1.3920     0.0000     0.0000 ca         1 43A       0.103100
      3 C3           2.0840     0.0000     1.1980 ca         1 43A      -0.199000
      4 C4           1.3840    -0.0050     2.4040 cp         1 43A      -0.018000
      5 C5          -0.0100    -0.0110     2.3980 ca         1 43A      -0.135000
      6 C6          -0.6960    -0.0110     1.2000 ca         1 43A      -0.135000
      7 O7          -0.6790    -0.0000    -1.1780 oh         1 43A      -0.503100
      8 O8           2.0730     0.0050    -1.1780 os         1 43A      -0.279900
      9 C9           3.4630     0.0100    -0.8520 c3         1 43A       0.101700
     10 C10          2.1210    -0.0040     3.6900 cp         1 43A       0.002000
     11 C11          1.6630    -0.7810     4.7510 ca         1 43A      -0.150000
     12 C12          2.3530    -0.7880     5.9550 ca         1 43A       0.064600
     13 C13          3.5040     0.0020     6.0890 ca         1 43A      -0.120800
     14 C14          3.9560     0.7810     5.0270 ca         1 43A      -0.070000
     15 C15          3.2690     0.7780     3.8330 ca         1 43A      -0.150000
     16 N16          2.1190    -1.4600     7.1490 ns         1 43A      -0.459100
     17 C17          3.0520    -1.1610     8.0690 c          1 43A       0.707700
     18 C18          3.9990    -0.2130     7.4660 cc         1 43A      -0.138400
     19 O19          3.1040    -1.6000     9.2040 o          1 43A      -0.588500
     20 C20          5.1110     0.3550     8.0590 cf         1 43A       0.029800
     21 C21          5.4420     0.0330     9.3910 cd         1 43A      -0.139100
     22 N22          6.1730    -1.0580     9.8090 na         1 43A      -0.133100
     23 C23          6.2760    -1.0170    11.1620 cd         1 43A      -0.149300
     24 C24          5.6260     0.0810    11.6200 cc         1 43A      -0.204000
     25 C25          5.0990     0.7600    10.5200 cc         1 43A      -0.158000
     26 H3           3.1670     0.0020     1.2000 ha         1 43A       0.152000
     27 H5          -0.5550    -0.0170     3.3340 ha         1 43A       0.139000
     28 H6          -1.7790    -0.0130     1.1980 ha         1 43A       0.144000
     29 HO7         -1.0840     0.8420    -1.3070 ho         1 43A       0.417000
     30 H91          3.7010    -0.8720    -0.2690 h1         1 43A       0.044367
     31 H92          3.6960     0.8970    -0.2750 h1         1 43A       0.044367
     32 H93          4.0480     0.0090    -1.7640 h1         1 43A       0.044367
     33 H11          0.7870    -1.4060     4.6250 ha         1 43A       0.140000
     34 H14          4.8470     1.3870     5.1390 ha         1 43A       0.134000
     35 H15          3.5880     1.4230     3.0230 ha         1 43A       0.138000
     36 H16          1.3540    -2.0860     7.3030 hn         1 43A       0.342500
     37 H20          5.7330     1.0410     7.4970 ha         1 43A       0.141000
     38 H22          6.5620    -1.7640     9.2150 hn         1 43A       0.295700
     39 H23          6.7930    -1.7450    11.7760 h4         1 43A       0.163000
     40 H24          5.5370     0.3820    12.6570 ha         1 43A       0.147000
     41 H25          4.5230     1.6770    10.5450 ha         1 43A       0.149000
@<TRIPOS>BOND
     1     1     2 ar
     2     1     6 ar
     3     1     7 1
     4     2     3 ar
     5     2     8 1
     6     3     4 ar
     7     3    26 1
     8     4     5 ar
     9     4    10 1
    10     5     6 ar
    11     5    27 1
    12     6    28 1
    13     7    29 1
    14     8     9 1
    15     9    30 1
    16     9    31 1
    17     9    32 1
    18    10    11 ar
    19    10    15 ar
    20    11    12 ar
    21    11    33 1
    22    12    13 ar
    23    12    16 1
    24    13    14 ar
    25    13    18 1
    26    14    15 ar
    27    14    34 1
    28    15    35 1
    29    16    17 1
    30    16    36 1
    31    17    18 1
    32    17    19 2
    33    18    20 2
    34    20    21 1
    35    20    37 1
    36    21    22 1
    37    21    25 2
    38    22    23 1
    39    22    38 1
    40    23    24 2
    41    23    39 1
    42    24    25 1
    43    24    40 1
    44    25    41 1
@<TRIPOS>SUBSTRUCTURE
     1 43A         1 TEMP              0 ****  ****    0 ROOT
