@<TRIPOS>MOLECULE
molecule
   78    83     1     0     0
SMALL
bcc


@<TRIPOS>ATOM
      1 C8           0.0000     0.0000     0.0000 c3         1 43B      -0.033100
      2 C9           1.5300     0.0000     0.0000 c3         1 43B      -0.070700
      3 C10          2.0320     0.0000     1.4200 cc         1 43B       0.450200
      4 S11          2.3920     1.3620     2.4340 ss         1 43B      -0.164100
      5 C12          2.9000     0.4560     3.8750 ca         1 43B      -0.025100
      6 C13          2.7490    -0.8840     3.4490 ca         1 43B       0.121400
      7 N14          2.3010    -1.0220     2.1830 nd         1 43B      -0.622100
      8 C15          3.0840    -1.8840     4.3850 ca         1 43B      -0.056000
      9 C16          3.5260    -1.5370     5.6490 cp         1 43B      -0.054000
     10 C17          3.6600    -0.1970     6.0280 ca         1 43B      -0.104000
     11 C18          3.3450     0.7900     5.1320 ca         1 43B      -0.079000
     12 C19          3.8680    -2.6040     6.6200 cp         1 43B      -0.002000
     13 C20          3.5200    -2.4630     7.9630 ca         1 43B      -0.129000
     14 C21          3.8370    -3.4540     8.8640 ca         1 43B      -0.076000
     15 C22          4.5090    -4.6010     8.4330 ca         1 43B      -0.162600
     16 C23          4.8630    -4.7380     7.0890 ca         1 43B      -0.076000
     17 C24          4.5380    -3.7490     6.1880 ca         1 43B      -0.129000
     18 C25          4.8500    -5.6650     9.4000 c          1 43B       0.702700
     19 N26          5.4980    -6.7710     8.9830 ns         1 43B      -0.654300
     20 S27          5.8800    -7.9640    10.0660 sy         1 43B       1.424900
     21 C28          4.3650    -8.6440    10.6570 ca         1 43B      -0.378500
     22 O29          4.5460    -5.5430    10.5710 o          1 43B      -0.576100
     23 O30          6.4660    -7.3010    11.1790 o          1 43B      -0.612800
     24 O31          6.4950    -8.9940     9.3050 o          1 43B      -0.612800
     25 C32          3.7860    -9.7140     9.9990 ca         1 43B       0.072000
     26 C33          2.6000   -10.2500    10.4590 ca         1 43B      -0.258200
     27 C34          1.9850    -9.7090    11.5810 ca         1 43B       0.297600
     28 C35          2.5720    -8.6390    12.2430 ca         1 43B      -0.240000
     29 C36          3.7590    -8.1080    11.7780 ca         1 43B       0.068000
     30 N37          1.9810   -11.3940     9.7540 no         1 43B       0.301200
     31 O38          2.0220   -11.4540     8.5380 o          1 43B      -0.210500
     32 O39          1.4260   -12.2720    10.3880 o          1 43B      -0.210500
     33 N40          0.7850   -10.2490    12.0490 nu         1 43B      -0.797600
     34 C41          0.2100    -9.7740    13.3110 c3         1 43B       0.241800
     35 C42         -1.0950   -10.5210    13.5910 c3         1 43B      -0.031300
     36 S43         -1.8050    -9.9320    15.1520 ss         1 43B      -0.236000
     37 C44         -3.2550   -10.9320    15.2260 ca         1 43B       0.035900
     38 C45         -4.1310   -10.8110    16.2960 ca         1 43B      -0.129500
     39 C46         -5.2660   -11.5970    16.3500 ca         1 43B      -0.111000
     40 C47         -5.5290   -12.5030    15.3410 ca         1 43B      -0.132000
     41 C48         -4.6580   -12.6280    14.2730 ca         1 43B      -0.111000
     42 C49         -3.5260   -11.8410    14.2100 ca         1 43B      -0.129500
     43 C1          -1.4240    -0.0020    -4.0270 ca         1 43B      -0.127000
     44 C2          -1.1940    -1.1990    -3.3750 ca         1 43B      -0.125500
     45 C3          -0.7330    -1.1980    -2.0720 ca         1 43B      -0.122500
     46 C4          -0.5020    -0.0010    -1.4210 ca         1 43B      -0.091300
     47 C5          -0.7390     1.1960    -2.0710 ca         1 43B      -0.122500
     48 C6          -1.1950     1.1950    -3.3760 ca         1 43B      -0.125500
     49 HD1         -0.3610     0.8850     0.5100 hc         1 43B       0.059700
     50 HD2         -0.3610    -0.8840     0.5110 hc         1 43B       0.059700
     51 HE1          1.8910     0.8850    -0.5110 hc         1 43B       0.074200
     52 HE2          1.8910    -0.8850    -0.5110 hc         1 43B       0.074200
     53 HF           2.9890    -2.9290     4.1150 ha         1 43B       0.150000
     54 HG           4.0070     0.0580     7.0220 ha         1 43B       0.144000
     55 HH           3.4440     1.8320     5.4140 ha         1 43B       0.142000
     56 HI1          2.9990    -1.5740     8.2980 ha         1 43B       0.144500
     57 HJ1          3.5650    -3.3460     9.9070 ha         1 43B       0.143500
     58 HJ2          5.3840    -5.6270     6.7540 ha         1 43B       0.143500
     59 HI2          4.8130    -3.8550     5.1450 ha         1 43B       0.144500
     60 H26          5.7870    -6.8510     8.0280 hn         1 43B       0.350500
     61 HK           4.2660   -10.1350     9.1240 ha         1 43B       0.174000
     62 HL           2.0960    -8.2160    13.1200 ha         1 43B       0.156000
     63 HM           4.2180    -7.2730    12.2940 ha         1 43B       0.181000
     64 H40          0.2970   -10.9320    11.5040 hn         1 43B       0.467800
     65 HN1          0.0100    -8.7120    13.2380 h1         1 43B       0.059200
     66 HN2          0.9110    -9.9550    14.1170 h1         1 43B       0.059200
     67 HO1         -1.7950   -10.3400    12.7840 h1         1 43B       0.077200
     68 HO2         -0.8940   -11.5830    13.6640 h1         1 43B       0.077200
     69 HP1         -3.9250   -10.1000    17.0880 ha         1 43B       0.136000
     70 HQ1         -5.9500   -11.5020    17.1850 ha         1 43B       0.134500
     71 HR          -6.4190   -13.1200    15.3870 ha         1 43B       0.133000
     72 HQ2         -4.8690   -13.3380    13.4830 ha         1 43B       0.134500
     73 HP2         -2.8440   -11.9390    13.3730 ha         1 43B       0.136000
     74 HB1         -1.3740    -2.1370    -3.8860 ha         1 43B       0.131000
     75 HC1         -0.5520    -2.1360    -1.5610 ha         1 43B       0.131500
     76 HC2         -0.5590     2.1340    -1.5600 ha         1 43B       0.131500
     77 HB2         -1.3780     2.1330    -3.8870 ha         1 43B       0.131000
     78 HA          -1.7830    -0.0020    -5.0490 ha         1 43B       0.130000
@<TRIPOS>BOND
     1     1     2 1
     2     1    46 1
     3     1    49 1
     4     1    50 1
     5     2     3 1
     6     2    51 1
     7     2    52 1
     8     3     4 1
     9     3     7 2
    10     4     5 1
    11     5     6 ar
    12     5    11 ar
    13     6     7 1
    14     6     8 ar
    15     8     9 ar
    16     8    53 1
    17     9    10 ar
    18     9    12 1
    19    10    11 ar
    20    10    54 1
    21    11    55 1
    22    12    13 ar
    23    12    17 ar
    24    13    14 ar
    25    13    56 1
    26    14    15 ar
    27    14    57 1
    28    15    16 ar
    29    15    18 1
    30    16    17 ar
    31    16    58 1
    32    17    59 1
    33    18    19 1
    34    18    22 2
    35    19    20 1
    36    19    60 1
    37    20    21 1
    38    20    23 2
    39    20    24 2
    40    21    25 ar
    41    21    29 ar
    42    25    26 ar
    43    25    61 1
    44    26    27 ar
    45    26    30 1
    46    27    28 ar
    47    27    33 1
    48    28    29 ar
    49    28    62 1
    50    29    63 1
    51    30    31 1
    52    30    32 1
    53    33    34 1
    54    33    64 1
    55    34    35 1
    56    34    65 1
    57    34    66 1
    58    35    36 1
    59    35    67 1
    60    35    68 1
    61    36    37 1
    62    37    38 ar
    63    37    42 ar
    64    38    39 ar
    65    38    69 1
    66    39    40 ar
    67    39    70 1
    68    40    41 ar
    69    40    71 1
    70    41    42 ar
    71    41    72 1
    72    42    73 1
    73    43    44 ar
    74    43    48 ar
    75    43    78 1
    76    44    45 ar
    77    44    74 1
    78    45    46 ar
    79    45    75 1
    80    46    47 ar
    81    47    48 ar
    82    47    76 1
    83    48    77 1
@<TRIPOS>SUBSTRUCTURE
     1 43B         1 TEMP              0 ****  ****    0 ROOT
