@<TRIPOS>MOLECULE
43C
   45    48     1     0     0
SMALL
bcc


@<TRIPOS>ATOM
      1 CAA          0.0000     0.0000     0.0000 c3         1 43C      -0.025400
      2 CAT          1.5070     0.0000     0.0000 cc         1 43C       0.300600
      3 CAN          2.3160     0.0000     1.0850 cd         1 43C      -0.467600
      4 NAR          2.3070    -0.0060    -1.0710 nc         1 43C      -0.299000
      5 NAS          3.5320    -0.0040    -0.6770 nd         1 43C      -0.385800
      6 NAZ          3.5830    -0.0060     0.6100 na         1 43C       0.562400
      7 CAO          4.8030    -0.0080     1.4200 c3         1 43C      -0.063700
      8 CAP          5.6820    -1.1940     1.0150 c3         1 43C      -0.052700
      9 NBA          6.8430    -1.2670     1.9050 na         1 43C       0.330100
     10 CAM          6.9640    -2.0460     3.0010 cc         1 43C       0.218400
     11 NAQ          8.1320    -1.8540     3.5480 nd         1 43C      -0.608000
     12 CAX          8.8190    -0.9440     2.8340 cd         1 43C       0.384800
     13 CAV         10.1860    -0.4500     3.1250 ca         1 43C      -0.124500
     14 CAG         10.6090    -0.2970     4.4450 ca         1 43C      -0.081000
     15 CAE         11.8820     0.1630     4.7100 ca         1 43C      -0.117000
     16 CAD         12.7390     0.4720     3.6680 ca         1 43C      -0.110000
     17 CAF         12.3250     0.3220     2.3570 ca         1 43C      -0.117000
     18 CAH         11.0560    -0.1430     2.0800 ca         1 43C      -0.081000
     19 CAY          8.0170    -0.5590     1.7730 cc         1 43C      -0.364600
     20 CAW          8.3510     0.4150     0.7180 ca         1 43C       0.020000
     21 CAK          8.7570     1.7070     1.0630 ca         1 43C      -0.084000
     22 CAI          9.0660     2.6100     0.0850 ca         1 43C      -0.072500
     23 CAU          8.9750     2.2410    -1.2610 ca         1 43C       0.005000
     24 CAC          9.2980     3.1870    -2.2860 cg         1 43C       0.225800
     25 NAB          9.5440     3.9260    -3.1120 n1         1 43C      -0.370800
     26 CAJ          8.5680     0.9480    -1.6060 ca         1 43C      -0.072500
     27 CAL          8.2650     0.0440    -0.6280 ca         1 43C      -0.084000
     28 H1          -0.4630    -0.9670    -0.1580 hc         1 43C       0.008033
     29 H2          -0.7110     0.4310     0.6950 hc         1 43C       0.008033
     30 H3          -0.3870     0.4700    -0.8960 hc         1 43C       0.008033
     31 H4           1.7820    -0.1440     2.0170 h4         1 43C       0.180000
     32 H5           5.1220     0.8310     0.8140 h1         1 43C       0.061700
     33 H6           4.3800     0.2490     2.3830 h1         1 43C       0.061700
     34 H7           5.0890    -2.0980     0.9430 h1         1 43C       0.062200
     35 H8           5.9660    -0.8830     0.0170 h1         1 43C       0.062200
     36 H9           6.2670    -2.7370     3.4600 h5         1 43C       0.032100
     37 H10          9.8790    -0.8130     5.0570 ha         1 43C       0.123000
     38 H11         12.4420    -0.1230     5.5920 ha         1 43C       0.108000
     39 H12         13.7200     0.6940     4.0700 ha         1 43C       0.107000
     40 H13         12.7210     1.0960     1.7110 ha         1 43C       0.108000
     41 H14         10.9160    -0.2810     1.0150 ha         1 43C       0.123000
     42 H15          8.9350     1.9210     2.1100 ha         1 43C       0.119500
     43 H16          9.7650     3.4230     0.2400 ha         1 43C       0.121500
     44 H17          8.3620     0.9620    -2.6690 ha         1 43C       0.121500
     45 H18          7.8610    -0.9170    -0.9220 ha         1 43C       0.119500
@<TRIPOS>BOND
     1     1     2 1   
     2     1    28 1   
     3     1    29 1   
     4     1    30 1   
     5     2     3 2   
     6     2     4 1   
     7     3     6 1   
     8     3    31 1   
     9     4     5 2   
    10     5     6 1   
    11     6     7 1   
    12     7     8 1   
    13     7    32 1   
    14     7    33 1   
    15     8     9 1   
    16     8    34 1   
    17     8    35 1   
    18     9    10 1   
    19     9    19 1   
    20    10    11 2   
    21    10    36 1   
    22    11    12 1   
    23    12    13 1   
    24    12    19 2   
    25    13    14 ar  
    26    13    18 ar  
    27    14    15 ar  
    28    14    37 1   
    29    15    16 ar  
    30    15    38 1   
    31    16    17 ar  
    32    16    39 1   
    33    17    18 ar  
    34    17    40 1   
    35    18    41 1   
    36    19    20 1   
    37    20    21 ar  
    38    20    27 ar  
    39    21    22 ar  
    40    21    42 1   
    41    22    23 ar  
    42    22    43 1   
    43    23    24 1   
    44    23    26 ar  
    45    24    25 3   
    46    26    27 ar  
    47    26    44 1   
    48    27    45 1   
@<TRIPOS>SUBSTRUCTURE
     1 43C         1 TEMP              0 ****  ****    0 ROOT
