@<TRIPOS>MOLECULE
molecule
   45    48     1     0     0
SMALL
bcc


@<TRIPOS>ATOM
      1 CAA          0.0000     0.0000     0.0000 c3         1 43C      -0.138400
      2 CAT          1.5070     0.0000     0.0000 cc         1 43C       0.306600
      3 CAN          2.3160     0.0000     1.0850 cd         1 43C      -0.311600
      4 NAR          2.3070    -0.0060    -1.0710 nc         1 43C      -0.354000
      5 NAS          3.5320    -0.0040    -0.6770 nd         1 43C      -0.218800
      6 NAZ          3.5830    -0.0060     0.6100 na         1 43C       0.106400
      7 CAO          4.8030    -0.0080     1.4200 c3         1 43C       0.026300
      8 CAP          5.6820    -1.1940     1.0150 c3         1 43C       0.038300
      9 NBA          6.8430    -1.2670     1.9050 na         1 43C      -0.167900
     10 CAM          6.9640    -2.0460     3.0010 cc         1 43C       0.405400
     11 NAQ          8.1320    -1.8540     3.5480 nd         1 43C      -0.690000
     12 CAX          8.8190    -0.9440     2.8340 cd         1 43C       0.398800
     13 CAV         10.1860    -0.4500     3.1250 ca         1 43C      -0.125500
     14 CAG         10.6090    -0.2970     4.4450 ca         1 43C      -0.101000
     15 CAE         11.8820     0.1630     4.7100 ca         1 43C      -0.143500
     16 CAD         12.7390     0.4720     3.6680 ca         1 43C      -0.134000
     17 CAF         12.3250     0.3220     2.3570 ca         1 43C      -0.143500
     18 CAH         11.0560    -0.1430     2.0800 ca         1 43C      -0.101000
     19 CAY          8.0170    -0.5590     1.7730 cc         1 43C      -0.183600
     20 CAW          8.3510     0.4150     0.7180 ca         1 43C       0.003000
     21 CAK          8.7570     1.7070     1.0630 ca         1 43C      -0.106500
     22 CAI          9.0660     2.6100     0.0850 ca         1 43C      -0.095000
     23 CAU          8.9750     2.2410    -1.2610 ca         1 43C      -0.036000
     24 CAC          9.2980     3.1870    -2.2860 cg         1 43C       0.233800
     25 NAB          9.5440     3.9260    -3.1120 n1         1 43C      -0.352800
     26 CAJ          8.5680     0.9480    -1.6060 ca         1 43C      -0.095000
     27 CAL          8.2650     0.0440    -0.6280 ca         1 43C      -0.106500
     28 H1          -0.4630    -0.9670    -0.1580 hc         1 43C       0.047033
     29 H2          -0.7110     0.4310     0.6950 hc         1 43C       0.047033
     30 H3          -0.3870     0.4700    -0.8960 hc         1 43C       0.047033
     31 H4           1.7820    -0.1440     2.0170 h4         1 43C       0.198000
     32 H5           5.1220     0.8310     0.8140 h1         1 43C       0.094700
     33 H6           4.3800     0.2490     2.3830 h1         1 43C       0.094700
     34 H7           5.0890    -2.0980     0.9430 h1         1 43C       0.090700
     35 H8           5.9660    -0.8830     0.0170 h1         1 43C       0.090700
     36 H9           6.2670    -2.7370     3.4600 h5         1 43C       0.074100
     37 H10          9.8790    -0.8130     5.0570 ha         1 43C       0.149500
     38 H11         12.4420    -0.1230     5.5920 ha         1 43C       0.135000
     39 H12         13.7200     0.6940     4.0700 ha         1 43C       0.134000
     40 H13         12.7210     1.0960     1.7110 ha         1 43C       0.135000
     41 H14         10.9160    -0.2810     1.0150 ha         1 43C       0.149500
     42 H15          8.9350     1.9210     2.1100 ha         1 43C       0.149000
     43 H16          9.7650     3.4230     0.2400 ha         1 43C       0.150500
     44 H17          8.3620     0.9620    -2.6690 ha         1 43C       0.150500
     45 H18          7.8610    -0.9170    -0.9220 ha         1 43C       0.149000
@<TRIPOS>BOND
     1    10    11 2
     2    10     9 1
     3    11    12 1
     4     9     8 1
     5     9    19 1
     6    12    13 1
     7    12    19 2
     8     8     7 1
     9    13    14 ar
    10    13    18 ar
    11    14    15 ar
    12    18    17 ar
    13    15    16 ar
    14    27    26 ar
    15    27    20 ar
    16    16    17 ar
    17    19    20 1
    18    26    23 ar
    19    20    21 ar
    20     7     6 1
    21    23    24 1
    22    23    22 ar
    23    21    22 ar
    24    24    25 3
    25     6     3 1
    26     6     5 1
    27     3     2 2
    28     5     4 2
    29     2     4 1
    30     2     1 1
    31     1    28 1
    32     1    29 1
    33     1    30 1
    34     3    31 1
    35     7    32 1
    36     7    33 1
    37     8    34 1
    38     8    35 1
    39    10    36 1
    40    14    37 1
    41    15    38 1
    42    16    39 1
    43    17    40 1
    44    18    41 1
    45    21    42 1
    46    22    43 1
    47    26    44 1
    48    27    45 1
@<TRIPOS>SUBSTRUCTURE
     1 43C         1 TEMP              0 ****  ****    0 ROOT
