@<TRIPOS>MOLECULE
molecule
   45    48     1     0     0
SMALL
bcc


@<TRIPOS>ATOM
      1 CAA          0.0000     0.0000     0.0000 c3         1 43D      -0.106400
      2 CAS          1.5070     0.0000     0.0000 cc         1 43D       0.284600
      3 CAK          2.3180     0.0000     1.0850 cd         1 43D      -0.309600
      4 NAQ          2.3080    -0.0070    -1.0720 nc         1 43D      -0.358000
      5 NAR          3.5320    -0.0050    -0.6770 nd         1 43D      -0.198800
      6 NAZ          3.5840    -0.0060     0.6090 na         1 43D       0.148400
      7 CAM          4.8050    -0.0080     1.4180 c3         1 43D      -0.247700
      8 CAN          5.6830    -1.1940     1.0150 c3         1 43D       0.224300
      9 NBA          6.8450    -1.2670     1.9030 na         1 43D      -0.217900
     10 CAJ          6.9680    -2.0490     2.9970 cd         1 43D       0.395400
     11 NAO          8.1360    -1.8540     3.5440 nc         1 43D      -0.673000
     12 CAW          8.8210    -0.9400     2.8330 cc         1 43D       0.444800
     13 CAV         10.1870    -0.4430     3.1260 cc         1 43D      -0.346800
     14 CAL         10.7270    -0.2510     4.3650 cd         1 43D      -0.079300
     15 CAI         11.1670    -0.0910     2.1770 cc         1 43D       0.350200
     16 NAP         12.2350     0.2980     2.8210 nd         1 43D      -0.511800
     17 NAY         11.9850     0.2070     4.1950 na         1 43D       0.065400
     18 CAB         12.9270     0.5460     5.2640 c3         1 43D       0.063600
     19 CAX          8.0170    -0.5540     1.7750 cd         1 43D      -0.164600
     20 CAU          8.3480     0.4260     0.7250 ca         1 43D       0.011000
     21 CAG          8.7570     1.7160     1.0750 ca         1 43D      -0.112000
     22 CAE          9.0630     2.6250     0.1020 ca         1 43D      -0.086500
     23 CAT          8.9670     2.2620    -1.2460 ca         1 43D      -0.012000
     24 CAD          9.2880     3.2150    -2.2670 cg         1 43D       0.237800
     25 NAC          9.5230     3.9700    -3.0820 n1         1 43D      -0.358800
     26 CAF          8.5580     0.9720    -1.5970 ca         1 43D      -0.086500
     27 CAH          8.2570     0.0620    -0.6240 ca         1 43D      -0.112000
     28 H1          -0.3610    -0.8850     0.5110 hc         1 43D       0.050700
     29 H2          -0.3610     0.0000    -1.0210 hc         1 43D       0.050700
     30 H3          -0.3610     0.8840     0.5110 hc         1 43D       0.050700
     31 H4           1.9970     0.0000     2.1200 h4         1 43D       0.181000
     32 H5           4.5600     0.2510     2.4410 h1         1 43D       0.128200
     33 H6           5.2530    -0.9940     1.3930 h1         1 43D       0.128200
     34 H7           5.9450    -1.1100    -0.0330 h1         1 43D       0.056200
     35 H8           5.1400    -2.1180     1.1780 h1         1 43D       0.056200
     36 H9           6.2210    -2.7380     3.3740 h5         1 43D       0.068100
     37 H10         10.2320    -0.4350     5.3110 h4         1 43D       0.182000
     38 H11         11.0550    -0.1350     1.1000 h4         1 43D       0.055100
     39 H12         13.1060    -0.3280     5.8780 h1         1 43D       0.056367
     40 H13         13.8610     0.8800     4.8290 h1         1 43D       0.056367
     41 H14         12.5100     1.3380     5.8750 h1         1 43D       0.056367
     42 H15          8.8300     1.9960     2.1190 ha         1 43D       0.143000
     43 H16          9.3800     3.6240     0.3740 ha         1 43D       0.146500
     44 H17          8.4840     0.6920    -2.6410 ha         1 43D       0.146500
     45 H18          7.9440    -0.9390    -0.8950 ha         1 43D       0.143000
@<TRIPOS>BOND
     1    11    10 2   
     2    11    12 1   
     3    10     9 1   
     4    18    17 1   
     5    17    14 1   
     6    17    16 1   
     7    14    13 2   
     8    16    15 2   
     9    15    13 1   
    10    13    12 1   
    11    12    19 2   
    12     9     8 1   
    13     9    19 1   
    14    27    26 ar  
    15    27    20 ar  
    16     8     7 1   
    17    19    20 1   
    18    26    23 ar  
    19    20    21 ar  
    20     7     6 1   
    21    23    24 1   
    22    23    22 ar  
    23    21    22 ar  
    24    24    25 3   
    25     6     3 1   
    26     6     5 1   
    27     3     2 2   
    28     5     4 2   
    29     2     4 1   
    30     2     1 1   
    31     1    28 1   
    32     1    29 1   
    33     1    30 1   
    34     3    31 1   
    35     7    32 1   
    36     7    33 1   
    37     8    34 1   
    38     8    35 1   
    39    10    36 1   
    40    14    37 1   
    41    15    38 1   
    42    18    39 1   
    43    18    40 1   
    44    18    41 1   
    45    21    42 1   
    46    22    43 1   
    47    26    44 1   
    48    27    45 1   
@<TRIPOS>SUBSTRUCTURE
     1 43D         1 TEMP              0 ****  ****    0 ROOT
