@<TRIPOS>MOLECULE
43D
   45    49     1     0     0
SMALL
bcc


@<TRIPOS>ATOM
      1 CAA          0.0000     0.0000     0.0000 c3         1 43D      -0.018000
      2 CAS          1.5070     0.0000     0.0000 c2         1 43D      -0.140000
      3 CAK          2.3180     0.0000     1.0850 c2         1 43D      -0.382000
      4 NAQ          2.3080    -0.0070    -1.0720 n2         1 43D      -0.041000
      5 NAR          3.5320    -0.0050    -0.6770 n2         1 43D      -0.188000
      6 NAZ          3.5840    -0.0060     0.6090 na         1 43D       0.393000
      7 CAM          4.8050    -0.0080     1.4180 c3         1 43D      -0.316000
      8 CAN          5.6830    -1.1940     1.0150 DU         1 43D       0.208000
      9 NBA          6.8450    -1.2670     1.9030 na         1 43D       0.295000
     10 CAJ          6.9680    -2.0490     2.9970 c2         1 43D      -0.270000
     11 NAO          8.1360    -1.8540     3.5440 n2         1 43D      -0.068000
     12 CAW          8.8210    -0.9400     2.8330 c2         1 43D       0.000000
     13 CAV         10.1870    -0.4430     3.1260 c2         1 43D      -0.177000
     14 CAL         10.7270    -0.2510     4.3650 c2         1 43D      -0.198000
     15 CAI         11.1670    -0.0910     2.1770 c2         1 43D      -0.062000
     16 NAP         12.2350     0.2980     2.8210 n2         1 43D      -0.218000
     17 NAY         11.9850     0.2070     4.1950 na         1 43D       0.275000
     18 CAB         12.9270     0.5460     5.2640 c3         1 43D      -0.075000
     19 CAX          8.0170    -0.5540     1.7750 c2         1 43D      -0.248000
     20 CAU          8.3480     0.4260     0.7250 ca         1 43D       0.030000
     21 CAG          8.7570     1.7160     1.0750 ca         1 43D      -0.093500
     22 CAE          9.0630     2.6250     0.1020 ca         1 43D      -0.063500
     23 CAT          8.9670     2.2620    -1.2460 ca         1 43D       0.034000
     24 CAD          9.2880     3.2150    -2.2670 c1         1 43D      -0.100000
     25 NAC          9.5230     3.9700    -3.0820 n1         1 43D      -0.053000
     26 CAF          8.5580     0.9720    -1.5970 ca         1 43D      -0.063500
     27 CAH          8.2570     0.0620    -0.6240 ca         1 43D      -0.093500
     28 H1          -0.3610    -0.8850     0.5110 hc         1 43D       0.051667
     29 H2          -0.3610     0.0000    -1.0210 hc         1 43D       0.051667
     30 H3          -0.3610     0.8840     0.5110 hc         1 43D       0.051667
     31 H4           1.9970     0.0000     2.1200 h4         1 43D       0.163000
     32 H5           4.5600     0.2510     2.4410 h1         1 43D       0.124000
     33 H6           5.2530    -0.9940     1.3930 DU         1 43D      -0.009000
     34 H7           5.9450    -1.1100    -0.0330 ha         1 43D       0.047000
     35 H8           5.1400    -2.1180     1.1780 ha         1 43D       0.047000
     36 H9           6.2210    -2.7380     3.3740 h5         1 43D       0.161000
     37 H10         10.2320    -0.4350     5.3110 h4         1 43D       0.154000
     38 H11         11.0550    -0.1350     1.1000 h4         1 43D       0.147000
     39 H12         13.1060    -0.3280     5.8780 h1         1 43D       0.061333
     40 H13         13.8610     0.8800     4.8290 h1         1 43D       0.061333
     41 H14         12.5100     1.3380     5.8750 h1         1 43D       0.061333
     42 H15          8.8300     1.9960     2.1190 ha         1 43D       0.115000
     43 H16          9.3800     3.6240     0.3740 ha         1 43D       0.116000
     44 H17          8.4840     0.6920    -2.6410 ha         1 43D       0.116000
     45 H18          7.9440    -0.9390    -0.8950 ha         1 43D       0.115000
@<TRIPOS>BOND
     1     1     2 1   
     2     1    28 1   
     3     1    29 1   
     4     1    30 1   
     5     2     3 1   
     6     2     4 1   
     7     3     6 1   
     8     3    31 1   
     9     4     5 1   
    10     5     6 1   
    11     6     7 1   
    12     7     8 1   
    13     7    32 1   
    14     7    33 1   
    15     8     9 1   
    16     8    33 1   
    17     8    34 1   
    18     8    35 1   
    19     9    10 1   
    20     9    19 1   
    21    10    11 1   
    22    10    36 1   
    23    11    12 1   
    24    12    13 1   
    25    12    19 1   
    26    13    14 1   
    27    13    15 1   
    28    14    17 1   
    29    14    37 1   
    30    15    16 1   
    31    15    38 1   
    32    16    17 1   
    33    17    18 1   
    34    18    39 1   
    35    18    40 1   
    36    18    41 1   
    37    19    20 1   
    38    20    21 1   
    39    20    27 1   
    40    21    22 1   
    41    21    42 1   
    42    22    23 1   
    43    22    43 1   
    44    23    24 1   
    45    23    26 1   
    46    24    25 1   
    47    26    27 1   
    48    26    44 1   
    49    27    45 1   
@<TRIPOS>SUBSTRUCTURE
     1 43D         1 TEMP              0 ****  ****    0 ROOT
