@<TRIPOS>MOLECULE
molecule
   39    40     1     0     0
SMALL
bcc


@<TRIPOS>ATOM
      1 CAH          0.0000     0.0000     0.0000 ca         1 43E      -0.110000
      2 CAS          1.3840     0.0000     0.0000 ca         1 43E       0.034900
      3 ClB          2.2520     0.0030    -1.5030 cl         1 43E      -0.096900
      4 CAG          2.0740     0.0000     1.1980 ca         1 43E      -0.116000
      5 CAT          1.3820    -0.0020     2.3960 ca         1 43E       0.034900
      6 ClC          2.2480    -0.0020     3.9010 cl         1 43E      -0.096900
      7 CAI         -0.0020    -0.0030     2.3940 ca         1 43E      -0.110000
      8 CAU         -0.6920    -0.0010     1.1970 ca         1 43E      -0.069300
      9 CAM         -2.1990     0.0030     1.1950 c3         1 43E       0.206100
     10 NAN         -2.6930    -1.3800     1.1910 n7         1 43E      -0.816200
     11 CAK         -4.1620    -1.4150     1.1890 c3         1 43E       0.160800
     12 CAJ         -4.6380    -2.8690     1.1840 c3         1 43E      -0.103400
     13 CAL         -6.1670    -2.9050     1.1830 c3         1 43E       0.130000
     14 NAO         -6.6230    -4.2970     1.1780 ns         1 43E      -0.602900
     15 CAR         -7.9420    -4.5740     1.1760 c          1 43E       0.784100
     16 OAA         -8.7540    -3.6700     1.1780 o          1 43E      -0.646100
     17 NAP         -8.3620    -5.8550     1.1720 ns         1 43E      -0.480100
     18 CAV         -9.7340    -6.1470     1.2840 cc         1 43E       0.062600
     19 CAE        -10.6350    -5.2840     1.8910 cc         1 43E      -0.150000
     20 CAD        -11.8980    -5.7130     1.9120 cd         1 43E      -0.064100
     21 SAQ        -12.0010    -7.2880     1.1350 ss         1 43E      -0.164800
     22 CAF        -10.2730    -7.2750     0.8080 cd         1 43E      -0.137100
     23 H1          -0.5410     0.0010    -0.9380 ha         1 43E       0.149500
     24 H2           3.1580     0.0000     1.1990 ha         1 43E       0.158000
     25 H3          -0.5450    -0.0040     3.3320 ha         1 43E       0.149500
     26 H4          -2.5580     0.5170     0.3110 h1         1 43E       0.044200
     27 H5          -2.5600     0.5120     2.0800 h1         1 43E       0.044200
     28 H6          -2.3490    -1.8600     1.9990 hn         1 43E       0.356800
     29 H8          -4.5360    -0.9160     2.0750 h1         1 43E       0.037700
     30 H9          -4.5340    -0.9100     0.3060 h1         1 43E       0.037700
     31 H10         -4.2650    -3.3740     2.0670 hc         1 43E       0.053700
     32 H11         -4.2640    -3.3680     0.2980 hc         1 43E       0.053700
     33 H12         -6.5410    -2.4060     2.0690 h1         1 43E       0.054700
     34 H13         -6.5400    -2.4000     0.3000 h1         1 43E       0.054700
     35 H14         -5.9550    -5.0420     1.1710 hn         1 43E       0.308500
     36 H15         -7.6970    -6.5990     1.0920 hn         1 43E       0.318500
     37 H16        -10.3350    -4.3330     2.3160 ha         1 43E       0.186000
     38 H17        -12.7330    -5.1750     2.3440 h4         1 43E       0.173000
     39 H18         -9.7270    -8.0630     0.3040 h4         1 43E       0.168000
@<TRIPOS>BOND
     1     3     2 1
     2     4     2 ar
     3     4     5 ar
     4     2     1 ar
     5     6     5 1
     6     5     7 ar
     7     1     8 ar
     8     7     8 ar
     9     8     9 1
    10     9    10 1
    11    10    11 1
    12    11    12 1
    13    12    13 1
    14    13    14 1
    15    14    15 1
    16    15    16 2
    17    15    17 1
    18    17    18 1
    19    18    19 1
    20    18    22 2
    21    19    20 2
    22    22    21 1
    23    20    21 1
    24     1    23 1
    25     4    24 1
    26     7    25 1
    27     9    26 1
    28     9    27 1
    29    10    28 1
    30    11    29 1
    31    11    30 1
    32    12    31 1
    33    12    32 1
    34    13    33 1
    35    13    34 1
    36    14    35 1
    37    17    36 1
    38    19    37 1
    39    20    38 1
    40    22    39 1
@<TRIPOS>SUBSTRUCTURE
     1 43E         1 TEMP              0 ****  ****    0 ROOT
