@<TRIPOS>MOLECULE
43E
   39    40     1     0     0
SMALL
bcc


@<TRIPOS>ATOM
      1 CAH          0.0000     0.0000     0.0000 ca         1 43E      -0.086500
      2 CAS          1.3840     0.0000     0.0000 ca         1 43E      -0.026600
      3 ClB          2.2520     0.0030    -1.5030 cl         1 43E      -0.017400
      4 CAG          2.0740     0.0000     1.1980 ca         1 43E      -0.097000
      5 CAT          1.3820    -0.0020     2.3960 ca         1 43E      -0.026600
      6 ClC          2.2480    -0.0020     3.9010 cl         1 43E      -0.017400
      7 CAI         -0.0020    -0.0030     2.3940 ca         1 43E      -0.086500
      8 CAU         -0.6920    -0.0010     1.1970 ca         1 43E      -0.076300
      9 CAM         -2.1990     0.0030     1.1950 c3         1 43E       0.204100
     10 NAN         -2.6930    -1.3800     1.1910 n7         1 43E      -0.583200
     11 CAK         -4.1620    -1.4150     1.1890 c3         1 43E       0.149800
     12 CAJ         -4.6380    -2.8690     1.1840 c3         1 43E      -0.044400
     13 CAL         -6.1670    -2.9050     1.1830 c3         1 43E       0.067000
     14 NAO         -6.6230    -4.2970     1.1780 ns         1 43E      -0.218900
     15 CAR         -7.9420    -4.5740     1.1760 c          1 43E       0.567100
     16 OAA         -8.7540    -3.6700     1.1780 o          1 43E      -0.692100
     17 NAP         -8.3620    -5.8550     1.1720 ns         1 43E      -0.038100
     18 CAV         -9.7340    -6.1470     1.2840 cc         1 43E      -0.078400
     19 CAE        -10.6350    -5.2840     1.8910 cc         1 43E      -0.127000
     20 CAD        -11.8980    -5.7130     1.9120 cd         1 43E       0.017900
     21 SAQ        -12.0010    -7.2880     1.1350 ss         1 43E      -0.281800
     22 CAF        -10.2730    -7.2750     0.8080 cd         1 43E      -0.065100
     23 H1          -0.5410     0.0010    -0.9380 ha         1 43E       0.119500
     24 H2           3.1580     0.0000     1.1990 ha         1 43E       0.126000
     25 H3          -0.5450    -0.0040     3.3320 ha         1 43E       0.119500
     26 H4          -2.5580     0.5170     0.3110 h1         1 43E       0.013700
     27 H5          -2.5600     0.5120     2.0800 h1         1 43E       0.013700
     28 H6          -2.3490    -1.8600     1.9990 hn         1 43E       0.255800
     29 H8          -4.5360    -0.9160     2.0750 h1         1 43E       0.011200
     30 H9          -4.5340    -0.9100     0.3060 h1         1 43E       0.011200
     31 H10         -4.2650    -3.3740     2.0670 hc         1 43E       0.022200
     32 H11         -4.2640    -3.3680     0.2980 hc         1 43E       0.022200
     33 H12         -6.5410    -2.4060     2.0690 h1         1 43E       0.026700
     34 H13         -6.5400    -2.4000     0.3000 h1         1 43E       0.026700
     35 H14         -5.9550    -5.0420     1.1710 hn         1 43E       0.168500
     36 H15         -7.6970    -6.5990     1.0920 hn         1 43E       0.159500
     37 H16        -10.3350    -4.3330     2.3160 ha         1 43E       0.165000
     38 H17        -12.7330    -5.1750     2.3440 h4         1 43E       0.148000
     39 H18         -9.7270    -8.0630     0.3040 h4         1 43E       0.150000
@<TRIPOS>BOND
     1     1     2 ar  
     2     1     8 ar  
     3     1    23 1   
     4     2     3 1   
     5     2     4 ar  
     6     4     5 ar  
     7     4    24 1   
     8     5     6 1   
     9     5     7 ar  
    10     7     8 ar  
    11     7    25 1   
    12     8     9 1   
    13     9    10 1   
    14     9    26 1   
    15     9    27 1   
    16    10    11 1   
    17    10    28 1   
    18    11    12 1   
    19    11    29 1   
    20    11    30 1   
    21    12    13 1   
    22    12    31 1   
    23    12    32 1   
    24    13    14 1   
    25    13    33 1   
    26    13    34 1   
    27    14    15 1   
    28    14    35 1   
    29    15    16 2   
    30    15    17 1   
    31    17    18 1   
    32    17    36 1   
    33    18    19 1   
    34    18    22 2   
    35    19    20 2   
    36    19    37 1   
    37    20    21 1   
    38    20    38 1   
    39    21    22 1   
    40    22    39 1   
@<TRIPOS>SUBSTRUCTURE
     1 43E         1 TEMP              0 ****  ****    0 ROOT
