@<TRIPOS>MOLECULE
43F
   30    31     1     0     0
SMALL
bcc


@<TRIPOS>ATOM
      1 C1          0.1840   -0.1470   -0.0380 ca        1 43F      0.055100
      2 C2          1.5920   -0.0570    0.0630 ca        1 43F      0.129100
      3 C3          2.1870    0.0410    1.3260 ca        1 43F     -0.184000
      4 C4          1.3880    0.0450    2.4750 ca        1 43F     -0.062300
      5 C5         -0.0040   -0.0460    2.3660 ca        1 43F     -0.140000
      6 C6         -0.6060   -0.1440    1.1140 ca        1 43F     -0.099000
      7 O7         -0.4270   -0.0780   -1.2890 os        1 43F     -0.219200
      8 C8         -0.7450   -1.2900   -1.8870 ca        1 43F      0.136100
      9 C9         -1.4760   -1.2230   -3.0920 ca        1 43F     -0.001600
     10 C10        -1.8170   -2.4070   -3.7510 ca        1 43F     -0.096000
     11 C11        -1.4380   -3.6400   -3.2140 ca        1 43F     -0.009600
     12 C12        -0.7140   -3.7060   -2.0200 ca        1 43F     -0.092000
     13 C13        -0.3680   -2.5320   -1.3590 ca        1 43F     -0.174000
     14 C14         2.0250    0.1320    3.8120 c3        1 43F      0.077300
     15 CL1         2.3770    1.7970    4.2550 cl        1 43F     -0.182400
     16 CL2        -1.8630   -5.0720   -4.0240 cl        1 43F     -0.088400
     17 CL3        -1.9560    0.2540   -3.7740 cl        1 43F     -0.062400
     18 O18         2.2840   -0.0890   -1.1260 os        1 43F     -0.305900
     19 CAA         3.6830    0.1720   -1.0470 c3        1 43F      0.109700
     20 H6         -1.7010   -0.2060    1.0190 ha        1 43F      0.156000
     21 H3          3.2790    0.1230    1.4250 ha        1 43F      0.148000
     22 H5         -0.6290   -0.0340    3.2720 ha        1 43F      0.144000
     23 H141        3.0020   -0.4110    3.8320 h1        1 43F      0.073700
     24 H142        1.3540   -0.2700    4.6110 h1        1 43F      0.073700
     25 H13         0.2090   -2.5750   -0.4230 ha        1 43F      0.153000
     26 H10        -2.3860   -2.3640   -4.6940 ha        1 43F      0.163000
     27 H12        -0.4150   -4.6790   -1.6020 ha        1 43F      0.151000
     28 HAA1        3.8760    1.1630   -0.5700 h1        1 43F      0.049033
     29 HAA2        4.0010    0.1790   -2.1210 h1        1 43F      0.049033
     30 HAA3        4.2020   -0.6430   -0.4870 h1        1 43F      0.049033
@<TRIPOS>BOND
     1    1    2 ar  
     2    1    6 ar  
     3    1    7 1   
     4    2    3 ar  
     5    2   18 1   
     6    3    4 ar  
     7    3   21 1   
     8    4    5 ar  
     9    4   14 1   
    10    5    6 ar  
    11    5   22 1   
    12    6   20 1   
    13    7    8 1   
    14    8    9 ar  
    15    8   13 ar  
    16    9   10 ar  
    17    9   17 1   
    18   10   11 ar  
    19   10   26 1   
    20   11   12 ar  
    21   11   16 1   
    22   12   13 ar  
    23   12   27 1   
    24   13   25 1   
    25   14   15 1   
    26   14   23 1   
    27   14   24 1   
    28   18   19 1   
    29   19   28 1   
    30   19   29 1   
    31   19   30 1   
@<TRIPOS>SUBSTRUCTURE
     1 43F         1 TEMP              0 ****  ****    0 ROOT
