@<TRIPOS>MOLECULE
molecule
   30    31     1     0     0
SMALL
bcc


@<TRIPOS>ATOM
      1 C1           0.0000     0.0000     0.0000 ca         1 43F       0.068100
      2 C2           1.3920     0.0000     0.0000 ca         1 43F       0.133100
      3 C3           2.0810     0.0000     1.2020 ca         1 43F      -0.199000
      4 C4           1.3860    -0.0010     2.3970 ca         1 43F      -0.064300
      5 C5           0.0050    -0.0010     2.3970 ca         1 43F      -0.141000
      6 C6          -0.6900    -0.0000     1.2020 ca         1 43F      -0.096000
      7 O7          -0.6810     0.0060    -1.1770 os         1 43F      -0.218200
      8 C8          -0.8420    -1.1780    -1.8270 ca         1 43F       0.151100
      9 C9          -1.4220    -1.2050    -3.0890 ca         1 43F       0.008400
     10 C10         -1.5840    -2.4080    -3.7470 ca         1 43F      -0.085000
     11 C11         -1.1700    -3.5860    -3.1500 ca         1 43F      -0.001600
     12 C12         -0.5920    -3.5610    -1.8930 ca         1 43F      -0.086000
     13 C13         -0.4210    -2.3590    -1.2330 ca         1 43F      -0.191000
     14 C14          2.1370    -0.0020     3.7040 c3         1 43F       0.095300
     15 Cl1          2.4370     1.6970     4.2260 cl         1 43F      -0.189400
     16 Cl2         -1.3750    -5.0970    -3.9790 cl         1 43F      -0.102400
     17 Cl3         -1.9420     0.2730    -3.8370 cl         1 43F      -0.080400
     18 O18          2.0740    -0.0010    -1.1770 os         1 43F      -0.309900
     19 CAA          3.5010    -0.0000    -1.0990 c3         1 43F       0.124700
     20 H6          -1.7730    -0.0010     1.2040 ha         1 43F       0.155000
     21 H3           3.1640     0.0000     1.2050 ha         1 43F       0.147000
     22 H5          -0.5360    -0.0020     3.3360 ha         1 43F       0.143000
     23 H141         1.5500    -0.5130     4.4570 h1         1 43F       0.071200
     24 H142         3.0840    -0.5130     3.5760 h1         1 43F       0.071200
     25 H13          0.0310    -2.3400    -0.2490 ha         1 43F       0.152000
     26 H10         -2.0360    -2.4300    -4.7310 ha         1 43F       0.161000
     27 H12         -0.2660    -4.4840    -1.4290 ha         1 43F       0.147000
     28 HAA1         3.8330     0.8810    -0.5630 h1         1 43F       0.045367
     29 HAA2         3.9170     0.0070    -2.0990 h1         1 43F       0.045367
     30 HAA3         3.8350    -0.8880    -0.5760 h1         1 43F       0.045367
@<TRIPOS>BOND
     1     1     2 ar  
     2     1     6 ar  
     3     1     7 1   
     4     2     3 ar  
     5     2    18 1   
     6     3     4 ar  
     7     4     5 ar  
     8     4    14 1   
     9     5     6 ar  
    10     7     8 1   
    11     8     9 ar  
    12     8    13 ar  
    13     9    10 ar  
    14     9    17 1   
    15    10    11 ar  
    16    11    12 ar  
    17    11    16 1   
    18    12    13 ar  
    19    14    15 1   
    20    18    19 1   
    21     6    20 1   
    22     3    21 1   
    23     5    22 1   
    24    14    23 1   
    25    14    24 1   
    26    13    25 1   
    27    10    26 1   
    28    12    27 1   
    29    19    28 1   
    30    19    29 1   
    31    19    30 1   
@<TRIPOS>SUBSTRUCTURE
     1 43F         1 TEMP              0 ****  ****    0 ROOT
