@<TRIPOS>MOLECULE
43G
   33    35     1     0     0
SMALL
bcc


@<TRIPOS>ATOM
      1 C            0.0000     0.0000     0.0000 cc         1 43G      -0.017100
      2 C1           1.3540     0.0000     0.0000 cd         1 43G      -0.168000
      3 N            2.0460     0.0000     1.1720 na         1 43G       0.188400
      4 C2           1.4090    -0.0020     2.3700 cc         1 43G      -0.104000
      5 C3           0.0590    -0.0030     2.4340 cd         1 43G      -0.261200
      6 C4          -0.6920     0.0040     1.2370 c          1 43G       0.585500
      7 O           -1.9140     0.0080     1.2690 o          1 43G      -0.600100
      8 O5          -0.6880     0.0010    -1.1740 oh         1 43G      -0.464100
      9 C6           3.4460    -0.0000     1.1410 ca         1 43G      -0.046400
     10 C7           4.1660     0.1130     2.3200 ca         1 43G      -0.135000
     11 C8           5.5580     0.1060     2.2850 cp         1 43G       0.010000
     12 C9           6.2200    -0.0130     1.0640 ca         1 43G      -0.110000
     13 C10          5.4950    -0.1240    -0.1060 ca         1 43G      -0.063000
     14 C11          4.1140    -0.1190    -0.0720 ca         1 43G      -0.133000
     15 C12          6.3350     0.2270     3.5440 cp         1 43G      -0.044000
     16 C13          7.7270     0.2220     3.5090 ca         1 43G      -0.094000
     17 C14          8.4450     0.3340     4.6830 ca         1 43G      -0.096000
     18 C15          7.7840     0.4530     5.8920 ca         1 43G      -0.093000
     19 C16          6.4010     0.4580     5.9320 ca         1 43G      -0.096000
     20 C17          5.6740     0.3520     4.7630 ca         1 43G      -0.094000
     21 H1           1.8910    -0.0010    -0.9410 h4         1 43G       0.151000
     22 H2           1.9890    -0.0050     3.2850 h4         1 43G       0.139000
     23 H4          -0.4420    -0.0030     3.3950 ha         1 43G       0.137000
     24 H6          -0.7460     0.8820    -1.5030 ho         1 43G       0.398000
     25 H7           3.6470     0.2050     3.2660 ha         1 43G       0.130000
     26 H8           7.3030    -0.0180     1.0330 ha         1 43G       0.118000
     27 H9           6.0120    -0.2170    -1.0540 ha         1 43G       0.108000
     28 H10          3.5510    -0.2060    -0.9930 ha         1 43G       0.122000
     29 H11          8.2460     0.1290     2.5620 ha         1 43G       0.109000
     30 H12          9.5280     0.3300     4.6580 ha         1 43G       0.105000
     31 H13          8.3510     0.5380     6.8110 ha         1 43G       0.104000
     32 H14          5.8880     0.5530     6.8820 ha         1 43G       0.105000
     33 H15          4.5910     0.3570     4.7960 ha         1 43G       0.109000
@<TRIPOS>BOND
     1     1     2 2   
     2     1     6 1   
     3     1     8 1   
     4     2     3 1   
     5     2    21 1   
     6     3     4 1   
     7     3     9 1   
     8     4     5 2   
     9     4    22 1   
    10     5     6 1   
    11     5    23 1   
    12     6     7 2   
    13     8    24 1   
    14     9    10 ar  
    15     9    14 ar  
    16    10    11 ar  
    17    10    25 1   
    18    11    12 ar  
    19    11    15 1   
    20    12    13 ar  
    21    12    26 1   
    22    13    14 ar  
    23    13    27 1   
    24    14    28 1   
    25    15    16 ar  
    26    15    20 ar  
    27    16    17 ar  
    28    16    29 1   
    29    17    18 ar  
    30    17    30 1   
    31    18    19 ar  
    32    18    31 1   
    33    19    20 ar  
    34    19    32 1   
    35    20    33 1   
@<TRIPOS>SUBSTRUCTURE
     1 43G         1 TEMP              0 ****  ****    0 ROOT
