@<TRIPOS>MOLECULE
molecule
   33    35     1     0     0
SMALL
bcc


@<TRIPOS>ATOM
      1 C            0.0000     0.0000     0.0000 cc         1 43G      -0.055100
      2 C1           1.3540     0.0000     0.0000 cd         1 43G       0.031000
      3 N            2.0460     0.0000     1.1720 na         1 43G      -0.344600
      4 C2           1.4090    -0.0020     2.3700 cc         1 43G       0.072000
      5 C3           0.0590    -0.0030     2.4340 cd         1 43G      -0.296200
      6 C4          -0.6920     0.0040     1.2370 c          1 43G       0.548500
      7 O           -1.9140     0.0080     1.2690 o          1 43G      -0.559100
      8 O5          -0.6880     0.0010    -1.1740 oh         1 43G      -0.485100
      9 C6           3.4460    -0.0000     1.1410 ca         1 43G       0.133600
     10 C7           4.1660     0.1130     2.3200 ca         1 43G      -0.157000
     11 C8           5.5580     0.1060     2.2850 cp         1 43G       0.004000
     12 C9           6.2200    -0.0130     1.0640 ca         1 43G      -0.136000
     13 C10          5.4950    -0.1240    -0.1060 ca         1 43G      -0.093000
     14 C11          4.1140    -0.1190    -0.0720 ca         1 43G      -0.162000
     15 C12          6.3350     0.2270     3.5440 cp         1 43G      -0.045000
     16 C13          7.7270     0.2220     3.5090 ca         1 43G      -0.114000
     17 C14          8.4450     0.3340     4.6830 ca         1 43G      -0.125000
     18 C15          7.7840     0.4530     5.8920 ca         1 43G      -0.119000
     19 C16          6.4010     0.4580     5.9320 ca         1 43G      -0.125000
     20 C17          5.6740     0.3520     4.7630 ca         1 43G      -0.114000
     21 H1           1.8910    -0.0010    -0.9410 h4         1 43G       0.169000
     22 H2           1.9890    -0.0050     3.2850 h4         1 43G       0.162000
     23 H4          -0.4420    -0.0030     3.3950 ha         1 43G       0.168000
     24 H6          -0.7460     0.8820    -1.5030 ho         1 43G       0.414000
     25 H7           3.6470     0.2050     3.2660 ha         1 43G       0.143000
     26 H8           7.3030    -0.0180     1.0330 ha         1 43G       0.141000
     27 H9           6.0120    -0.2170    -1.0540 ha         1 43G       0.140000
     28 H10          3.5510    -0.2060    -0.9930 ha         1 43G       0.141000
     29 H11          8.2460     0.1290     2.5620 ha         1 43G       0.131500
     30 H12          9.5280     0.3300     4.6580 ha         1 43G       0.134000
     31 H13          8.3510     0.5380     6.8110 ha         1 43G       0.133000
     32 H14          5.8880     0.5530     6.8820 ha         1 43G       0.134000
     33 H15          4.5910     0.3570     4.7960 ha         1 43G       0.131500
@<TRIPOS>BOND
     1    18    17 ar
     2    18    19 ar
     3    17    16 ar
     4    19    20 ar
     5    16    15 ar
     6    20    15 ar
     7    15    11 1
     8    11    12 ar
     9    11    10 ar
    10    12    13 ar
    11    10     9 ar
    12    13    14 ar
    13     9    14 ar
    14     9     3 1
    15     3     2 1
    16     3     4 1
    17     2     1 2
    18     4     5 2
    19     1     8 1
    20     1     6 1
    21     5     6 1
    22     6     7 2
    23     2    21 1
    24     4    22 1
    25     5    23 1
    26     8    24 1
    27    10    25 1
    28    12    26 1
    29    13    27 1
    30    14    28 1
    31    16    29 1
    32    17    30 1
    33    18    31 1
    34    19    32 1
    35    20    33 1
@<TRIPOS>SUBSTRUCTURE
     1 43G         1 TEMP              0 ****  ****    0 ROOT
