@<TRIPOS>MOLECULE
43J
   35    37     1     0     0
SMALL
bcc


@<TRIPOS>ATOM
      1 C12          0.0000     0.0000     0.0000 ca         1 43J      -0.100000
      2 C13          2.1390     0.0130     3.6870 cp         1 43J      -0.039000
      3 C18          3.5330     0.0020     3.6800 ca         1 43J      -0.096500
      4 C14          1.4540     0.0300     4.8990 ca         1 43J      -0.096500
      5 C15          2.1580     0.0360     6.0870 ca         1 43J      -0.096500
      6 C16          3.5410     0.0250     6.0740 ca         1 43J      -0.096000
      7 C11          1.3800     0.0000     0.0000 ca         1 43J      -0.098000
      8 C9           1.3890     0.0120     2.4060 cp         1 43J      -0.028000
      9 C1          -4.8830     0.0350     1.2340 cc         1 43J      -0.061100
     10 C6          -0.7010     0.0060     1.2080 ca         1 43J      -0.148900
     11 C4          -2.1780     0.0060     1.2090 cc         1 43J       0.350500
     12 N           -2.8240     0.8570     1.9750 nd         1 43J      -0.538300
     13 C           -4.1550     0.8940     2.0070 cd         1 43J       0.086600
     14 C2          -4.1970    -0.8840     0.4060 c          1 43J       0.574700
     15 N3          -2.8470    -0.8780     0.4120 n          1 43J       0.079700
     16 O           -4.8130    -1.6670    -0.2990 o          1 43J      -0.672500
     17 C7          -2.1030    -1.8150    -0.4330 c3         1 43J       0.026300
     18 C8          -0.0020     0.0120     2.4150 ca         1 43J      -0.049000
     19 C10          2.0770     0.0000     1.1930 ca         1 43J      -0.083000
     20 C17          4.2270     0.0080     4.8730 ca         1 43J      -0.096500
     21 H1          -0.5410     0.0000    -0.9390 ha         1 43J       0.113000
     22 H2           4.0710    -0.0120     2.7400 ha         1 43J       0.112000
     23 H3           0.3710     0.0390     4.9110 ha         1 43J       0.112000
     24 H4           1.6260     0.0490     7.0300 ha         1 43J       0.103500
     25 H5           4.0890     0.0300     7.0090 ha         1 43J       0.103000
     26 H6           1.9200    -0.0070    -0.9390 ha         1 43J       0.107000
     27 H7          -4.6620     1.6050     2.6480 h4         1 43J       0.130000
     28 H8          -6.5580     0.7330     0.6850 ho         1 43J       0.399000
     29 H9          -1.1990    -2.1230     0.0780 h1         1 43J       0.036700
     30 H10         -1.8440    -1.3320    -1.3670 h1         1 43J       0.036700
     31 H11         -2.7180    -2.6840    -0.6350 h1         1 43J       0.036700
     32 H12         -0.5400     0.0160     3.3550 ha         1 43J       0.128000
     33 H13          3.1600    -0.0000     1.1860 ha         1 43J       0.115000
     34 H14          5.3100    -0.0010     4.8680 ha         1 43J       0.103500
     35 O5          -6.2430     0.0580     1.2630 oh         1 43J      -0.455100
@<TRIPOS>BOND
     1     1     7 ar  
     2     1    10 ar  
     3     1    21 1   
     4     2     3 ar  
     5     2     4 ar  
     6     2     8 1   
     7     3    20 ar  
     8     3    22 1   
     9     4     5 ar  
    10     4    23 1   
    11     5     6 ar  
    12     5    24 1   
    13     6    20 ar  
    14     6    25 1   
    15     7    19 ar  
    16     7    26 1   
    17     8    18 ar  
    18     8    19 ar  
    19     9    13 2   
    20     9    14 1   
    21     9    35 1   
    22    10    11 1   
    23    10    18 ar  
    24    11    12 2   
    25    11    15 1   
    26    12    13 1   
    27    13    27 1   
    28    14    15 1   
    29    14    16 2   
    30    15    17 1   
    31    17    29 1   
    32    17    30 1   
    33    17    31 1   
    34    18    32 1   
    35    19    33 1   
    36    20    34 1   
    37    28    35 1   
@<TRIPOS>SUBSTRUCTURE
     1 43J         1 TEMP              0 ****  ****    0 ROOT
