@<TRIPOS>MOLECULE
molecule
   49    54     1     0     0
SMALL
bcc


@<TRIPOS>ATOM
      1 C28          0.0000     0.0000     0.0000 ca         1 43K      -0.239300
      2 C29          1.3820     0.0000     0.0000 ca         1 43K       0.657500
      3 F33          2.0500     0.0000    -1.1740 f          1 43K      -0.201200
      4 N30          2.0600     0.0000     1.1340 nb         1 43K      -0.708000
      5 C31          1.4570     0.0000     2.3080 ca         1 43K       0.463200
      6 C32          0.0800     0.0010     2.3980 ca         1 43K      -0.281300
      7 C15         -0.6770     0.0000     1.2220 cp         1 43K      -0.095500
      8 C12         -2.1600    -0.0000     1.2710 cp         1 43K       0.469800
      9 C14         -2.8100     0.0060     2.5040 ca         1 43K      -0.215300
     10 N11         -2.8550    -0.0010     0.1410 nb         1 43K      -0.626000
     11 C10         -4.1710     0.0010     0.1370 ca         1 43K       0.436200
     12 C9          -4.8870     0.0030     1.3290 ca         1 43K       0.046800
     13 O8          -6.2390     0.0090     1.3080 os         1 43K      -0.207200
     14 C13         -4.1930     0.0050     2.5340 ca         1 43K      -0.145300
     15 C21         -4.9270     0.0040     3.8370 c3         1 43K       0.219800
     16 C16         -4.2340    -0.9370     4.8450 c3         1 43K       0.118400
     17 O17         -3.4000    -0.0080     5.5700 os         1 43K      -0.423400
     18 C18         -3.9560     1.2160     5.4600 c2         1 43K       0.577500
     19 N19         -4.8270     1.3120     4.5000 n2         1 43K      -0.529900
     20 N20         -3.6330     2.2630     6.2860 nz         1 43K      -0.715600
     21 C5          -6.3620    -0.3950     3.6580 ca         1 43K      -0.168300
     22 C6          -7.1030    -0.7880     4.7560 ca         1 43K      -0.079000
     23 C4          -6.9460    -0.3770     2.3970 ca         1 43K       0.168100
     24 C3          -8.2770    -0.7510     2.2450 ca         1 43K      -0.129000
     25 C2          -9.0220    -1.1390     3.3380 ca         1 43K      -0.056000
     26 C1          -8.4350    -1.1620     4.6030 cp         1 43K      -0.041000
     27 C7          -9.2300    -1.5840     5.7830 cp         1 43K      -0.212300
     28 C22        -10.4860    -1.0260     6.0290 ca         1 43K      -0.056000
     29 C23        -11.1890    -1.4530     7.1430 ca         1 43K      -0.262300
     30 C24        -10.6300    -2.4100     7.9700 ca         1 43K       0.469200
     31 N25         -9.4420    -2.9210     7.7140 nb         1 43K      -0.712000
     32 C26         -8.7370    -2.5500     6.6620 ca         1 43K       0.649500
     33 F27         -7.5240    -3.1010     6.4390 f          1 43K      -0.223200
     34 H1          -0.5420     0.1860    -0.9190 ha         1 43K       0.180000
     35 H2           2.0510    -0.0000     3.2140 h4         1 43K       0.035100
     36 H3          -0.4010    -0.1810     3.3520 ha         1 43K       0.129000
     37 H4          -2.2490    -0.1700     3.4140 ha         1 43K       0.145000
     38 H5          -4.7030     0.0010    -0.8060 h4         1 43K       0.060100
     39 H6          -3.6320    -1.6770     4.3310 h1         1 43K       0.115200
     40 H7          -4.9590    -1.4010     5.5020 h1         1 43K       0.115200
     41 H8          -4.4570     2.5890     6.7500 hn         1 43K       0.485133
     42 H9          -2.9660     1.9570     6.9670 hn         1 43K       0.485133
     43 H10         -6.6460    -0.8050     5.7380 ha         1 43K       0.132000
     44 H11         -8.7330    -0.7330     1.2620 ha         1 43K       0.168000
     45 H12        -10.0580    -1.4300     3.2140 ha         1 43K       0.162000
     46 H13        -10.9010    -0.2770     5.3640 ha         1 43K       0.152000
     47 H14        -12.1660    -1.0410     7.3650 ha         1 43K       0.158000
     48 H15        -11.1760    -2.7440     8.8440 h4         1 43K       0.044100
     49 H203        -3.2440     3.0080     5.7430 hn         1 43K       0.485133
@<TRIPOS>BOND
     1    31    30 ar
     2    31    32 ar
     3    30    29 ar
     4    33    32 1
     5    32    27 ar
     6    29    28 ar
     7    27    28 ar
     8    27    26 1
     9    20    18 1
    10    26    22 ar
    11    26    25 ar
    12    18    19 2
    13    18    17 1
    14    22    21 ar
    15    19    15 1
    16    25    24 ar
    17    17    16 1
    18    21    15 1
    19    21    23 ar
    20    15    16 1
    21    15    14 1
    22    24    23 ar
    23    23    13 1
    24    14     9 ar
    25    14    12 ar
    26    13    12 1
    27     9     8 ar
    28    12    11 ar
    29     3     2 1
    30     1     2 ar
    31     1     7 ar
    32     8     7 1
    33     8    10 ar
    34    11    10 ar
    35     2     4 ar
    36     7     6 ar
    37     4     5 ar
    38     6     5 ar
    39     1    34 1
    40     5    35 1
    41     6    36 1
    42     9    37 1
    43    11    38 1
    44    16    39 1
    45    16    40 1
    46    20    41 1
    47    20    42 1
    48    22    43 1
    49    24    44 1
    50    25    45 1
    51    28    46 1
    52    29    47 1
    53    30    48 1
    54    49    20 1
@<TRIPOS>SUBSTRUCTURE
     1 43K         1 TEMP              0 ****  ****    0 ROOT
