@<TRIPOS>MOLECULE
43L
   36    39     1     0     0
SMALL
bcc


@<TRIPOS>ATOM
      1 CAJ          0.0000     0.0000     0.0000 ca         1 43L      -0.060000
      2 CAQ          1.3830     0.0000     0.0000 ca         1 43L       0.036100
      3 BrB          2.3300     0.0010    -1.6370 br         1 43L      -0.114100
      4 CAF          2.0740     0.0000     1.1990 ca         1 43L      -0.065000
      5 CAD          1.3810     0.0000     2.3950 ca         1 43L      -0.093000
      6 CAH         -0.0010    -0.0010     2.3940 ca         1 43L      -0.064000
      7 CAS         -0.6920     0.0050     1.1960 ca         1 43L      -0.118300
      8 CAV         -2.1990     0.0050     1.1950 c3         1 43L       0.048300
      9 CAK         -2.7130     1.2600     0.4790 c3         1 43L      -0.051400
     10 NAW         -2.6880    -1.1740     0.4870 na         1 43L       0.280600
     11 NAN         -2.2330    -2.4930     0.5170 nc         1 43L      -0.373800
     12 NAL         -2.9940    -3.1630    -0.2860 nd         1 43L       0.034000
     13 NAM         -3.8800    -2.3900    -0.8160 nd         1 43L      -0.408000
     14 CAT         -3.7360    -1.1720    -0.3750 cc         1 43L       0.355400
     15 NAO         -4.4550    -0.0200    -0.6630 nu         1 43L      -0.464900
     16 CAU         -4.2190     1.1340     0.2270 c3         1 43L       0.168800
     17 CAR         -4.7310     2.3900    -0.4290 ca         1 43L      -0.109300
     18 CAI         -4.5470     2.5860    -1.7850 ca         1 43L      -0.059000
     19 CAP         -5.0170     3.7390    -2.3870 ca         1 43L       0.031100
     20 BrA         -4.7670     4.0070    -4.2420 br         1 43L      -0.115100
     21 CAE         -5.6690     4.6970    -1.6320 ca         1 43L      -0.071000
     22 CAC         -5.8520     4.5010    -0.2760 ca         1 43L      -0.095000
     23 CAG         -5.3880     3.3450     0.3250 ca         1 43L      -0.083000
     24 HAJ1        -0.5410     0.0050    -0.9380 ha         1 43L       0.122000
     25 HAF1         3.1570     0.0000     1.2000 ha         1 43L       0.119000
     26 HAD1         1.9220    -0.0020     3.3330 ha         1 43L       0.111000
     27 HAH1        -0.5430     0.0010     3.3320 ha         1 43L       0.107000
     28 HAV1        -2.5680    -0.0060     2.2140 h1         1 43L       0.046700
     29 HAK1        -2.5520     2.1100     1.1310 hc         1 43L       0.053700
     30 HAK2        -2.2160     1.3270    -0.4810 hc         1 43L       0.053700
     31 HAO1        -5.4330    -0.2330    -0.6810 hn         1 43L       0.284800
     32 HAU1        -4.7310     0.9750     1.1680 h1         1 43L       0.023700
     33 HAI1        -4.0650     1.8210    -2.3820 ha         1 43L       0.134000
     34 HAE1        -6.0350     5.6020    -2.1030 ha         1 43L       0.119000
     35 HAC1        -6.3650     5.2500     0.3160 ha         1 43L       0.111000
     36 HAG1        -5.5310     3.1910     1.3870 ha         1 43L       0.106000
@<TRIPOS>BOND
     1     1     2 ar  
     2     1     7 ar  
     3     1    24 1   
     4     2     3 1   
     5     2     4 ar  
     6     4     5 ar  
     7     4    25 1   
     8     5     6 ar  
     9     5    26 1   
    10     6     7 ar  
    11     6    27 1   
    12     7     8 1   
    13     8     9 1   
    14     8    10 1   
    15     8    28 1   
    16     9    16 1   
    17     9    29 1   
    18     9    30 1   
    19    10    11 1   
    20    10    14 1   
    21    11    12 2   
    22    12    13 1   
    23    13    14 2   
    24    14    15 1   
    25    15    16 1   
    26    15    31 1   
    27    16    17 1   
    28    16    32 1   
    29    17    18 ar  
    30    17    23 ar  
    31    18    19 ar  
    32    18    33 1   
    33    19    20 1   
    34    19    21 ar  
    35    21    22 ar  
    36    21    34 1   
    37    22    23 ar  
    38    22    35 1   
    39    23    36 1   
@<TRIPOS>SUBSTRUCTURE
     1 43L         1 TEMP              0 ****  ****    0 ROOT
