@<TRIPOS>MOLECULE
molecule
   36    39     1     0     0
SMALL
bcc


@<TRIPOS>ATOM
      1 CAJ          0.0000     0.0000     0.0000 ca         1 43L      -0.075000
      2 CAQ          1.3830     0.0000     0.0000 ca         1 43L      -0.016900
      3 BrB          2.3300     0.0010    -1.6370 br         1 43L      -0.083100
      4 CAF          2.0740     0.0000     1.1990 ca         1 43L      -0.088000
      5 CAD          1.3810     0.0000     2.3950 ca         1 43L      -0.126000
      6 CAH         -0.0010    -0.0010     2.3940 ca         1 43L      -0.094000
      7 CAS         -0.6920     0.0050     1.1960 ca         1 43L      -0.107300
      8 CAV         -2.1990     0.0050     1.1950 c3         1 43L       0.124300
      9 CAK         -2.7130     1.2600     0.4790 c3         1 43L      -0.094400
     10 NAW         -2.6880    -1.1740     0.4870 na         1 43L      -0.114400
     11 NAN         -2.2330    -2.4930     0.5170 nc         1 43L      -0.203800
     12 NAL         -2.9940    -3.1630    -0.2860 nc         1 43L       0.000000
     13 NAM         -3.8800    -2.3900    -0.8160 nc         1 43L      -0.430000
     14 CAT         -3.7360    -1.1720    -0.3750 cd         1 43L       0.603400
     15 NAO         -4.4550    -0.0200    -0.6630 nu         1 43L      -0.783900
     16 CAU         -4.2190     1.1340     0.2270 c3         1 43L       0.228800
     17 CAR         -4.7310     2.3900    -0.4290 ca         1 43L      -0.102300
     18 CAI         -4.5470     2.5860    -1.7850 ca         1 43L      -0.073000
     19 CAP         -5.0170     3.7390    -2.3870 ca         1 43L      -0.021900
     20 BrA         -4.7670     4.0070    -4.2420 br         1 43L      -0.082100
     21 CAE         -5.6690     4.6970    -1.6320 ca         1 43L      -0.092000
     22 CAC         -5.8520     4.5010    -0.2760 ca         1 43L      -0.127000
     23 CAG         -5.3880     3.3450     0.3250 ca         1 43L      -0.109000
     24 HAJ1        -0.5410     0.0050    -0.9380 ha         1 43L       0.150000
     25 HAF1         3.1570     0.0000     1.2000 ha         1 43L       0.148000
     26 HAD1         1.9220    -0.0020     3.3330 ha         1 43L       0.141000
     27 HAH1        -0.5430     0.0010     3.3320 ha         1 43L       0.135000
     28 HAV1        -2.5680    -0.0060     2.2140 h1         1 43L       0.075700
     29 HAK1        -2.5520     2.1100     1.1310 hc         1 43L       0.083700
     30 HAK2        -2.2160     1.3270    -0.4810 hc         1 43L       0.083700
     31 HAO1        -5.4330    -0.2330    -0.6810 hn         1 43L       0.414800
     32 HAU1        -4.7310     0.9750     1.1680 h1         1 43L       0.046700
     33 HAI1        -4.0650     1.8210    -2.3820 ha         1 43L       0.165000
     34 HAE1        -6.0350     5.6020    -2.1030 ha         1 43L       0.148000
     35 HAC1        -6.3650     5.2500     0.3160 ha         1 43L       0.141000
     36 HAG1        -5.5310     3.1910     1.3870 ha         1 43L       0.133000
@<TRIPOS>BOND
     1    13    12 1
     2    13    14 2
     3    12    11 2
     4    14    15 1
     5    14    10 1
     6    11    10 1
     7    15    16 1
     8    10     8 1
     9    16    17 1
    10    16     9 1
    11    17    23 ar
    12    17    18 ar
    13    23    22 ar
    14    18    19 ar
    15    22    21 ar
    16     8     9 1
    17     8     7 1
    18    19    21 ar
    19    19    20 1
    20     7     6 ar
    21     7     1 ar
    22     6     5 ar
    23     1     2 ar
    24     5     4 ar
    25     2     4 ar
    26     2     3 1
    27     1    24 1
    28     4    25 1
    29     5    26 1
    30     6    27 1
    31     8    28 1
    32     9    29 1
    33     9    30 1
    34    15    31 1
    35    16    32 1
    36    18    33 1
    37    21    34 1
    38    22    35 1
    39    23    36 1
@<TRIPOS>SUBSTRUCTURE
     1 43L         1 TEMP              0 ****  ****    0 ROOT
