@<TRIPOS>MOLECULE
43M
   16    16     1     0     0
SMALL
bcc


@<TRIPOS>ATOM
      1 C1         -0.0160    0.0720   -0.0410 ca        1 43M     -0.087000
      2 C2          1.3830    0.0450   -0.0050 ca        1 43M     -0.022600
      3 C3          2.0720   -0.0580    1.2130 ca        1 43M     -0.026300
      4 C7          3.5520   -0.0870    1.2610 c3        1 43M     -0.058800
      5 C4          1.3350   -0.1350    2.4000 ca        1 43M     -0.210000
      6 C5         -0.0640   -0.1080    2.3580 ca        1 43M      0.130100
      7 C6         -0.7500   -0.0040    1.1360 ca        1 43M     -0.155000
      8 CL1         2.2360    0.1410   -1.4760 cl        1 43M     -0.097400
      9 O1         -0.8400   -0.1800    3.4920 oh        1 43M     -0.495100
     10 H1         -0.5410    0.1530   -1.0060 ha        1 43M      0.149000
     11 H71         3.9710    0.8480    0.8100 hc        1 43M      0.053033
     12 H72         3.9400   -0.9590    0.6760 hc        1 43M      0.053033
     13 H73         3.9230   -0.1720    2.3110 hc        1 43M      0.053033
     14 H4          1.8570   -0.2160    3.3640 ha        1 43M      0.138000
     15 H6         -1.8480    0.0150    1.1270 ha        1 43M      0.155000
     16 HO1        -0.2490   -0.2470    4.2560 ho        1 43M      0.421000
@<TRIPOS>BOND
     1    1    2 ar  
     2    1    7 ar  
     3    1   10 1   
     4    2    3 ar  
     5    2    8 1   
     6    3    4 1   
     7    3    5 ar  
     8    4   11 1   
     9    4   12 1   
    10    4   13 1   
    11    5    6 ar  
    12    5   14 1   
    13    6    7 ar  
    14    6    9 1   
    15    7   15 1   
    16    9   16 1   
@<TRIPOS>SUBSTRUCTURE
     1 43M         1 TEMP              0 ****  ****    0 ROOT
