@<TRIPOS>MOLECULE
molecule
   16    16     1     0     0
SMALL
bcc


@<TRIPOS>ATOM
      1 C1           0.0000     0.0000     0.0000 ca         1 43M      -0.106000
      2 C2           1.3950     0.0000     0.0000 ca         1 43M       0.012400
      3 C3           2.0920     0.0000     1.2080 ca         1 43M      -0.059300
      4 C7           3.5860    -0.0010     1.2510 c3         1 43M      -0.049800
      5 C4           1.3950     0.0000     2.4160 ca         1 43M      -0.149000
      6 C5          -0.0000     0.0000     2.4150 ca         1 43M       0.108100
      7 C6          -0.6970     0.0000     1.2080 ca         1 43M      -0.150000
      8 Cl1          2.2240    -0.0020    -1.5130 cl         1 43M      -0.101400
      9 O1          -0.6820     0.0020     3.5940 oh         1 43M      -0.520100
     10 H1          -0.5420     0.0000    -0.9380 ha         1 43M       0.148000
     11 H71          3.9630     0.8780     0.7440 hc         1 43M       0.051033
     12 H72          3.9170     0.0080     2.2830 hc         1 43M       0.051033
     13 H73          3.9610    -0.8900     0.7590 hc         1 43M       0.051033
     14 H4           1.9360     0.0000     3.3550 ha         1 43M       0.147000
     15 H6          -1.7810     0.0000     1.2080 ha         1 43M       0.147000
     16 HO1         -0.8020    -0.8860     3.8890 ho         1 43M       0.421000
@<TRIPOS>BOND
     1     1     2 ar
     2     1     7 ar
     3     1    10 1
     4     2     3 ar
     5     2     8 1
     6     3     4 1
     7     3     5 ar
     8     4    11 1
     9     4    12 1
    10     4    13 1
    11     5     6 ar
    12     5    14 1
    13     6     7 ar
    14     6     9 1
    15     7    15 1
    16     9    16 1
@<TRIPOS>SUBSTRUCTURE
     1 43M         1 TEMP              0 ****  ****    0 ROOT
