@<TRIPOS>MOLECULE
43N
   74    78     1     0     0
SMALL
bcc


@<TRIPOS>ATOM
      1 C1           0.0000     0.0000     0.0000 c3         1 43N      -0.005100
      2 C2           1.5300     0.0000     0.0000 c3         1 43N       0.163800
      3 C7           6.1210    -0.0030     2.1310 ca         1 43N      -0.187000
      4 C8           5.2380    -0.0000     3.1980 ca         1 43N       0.135100
      5 C9           3.8550     0.0010     2.9580 ca         1 43N      -0.143600
      6 C10          2.9080     0.0030     4.0820 c          1 43N       0.971200
      7 C14          5.8790     1.1980     5.0880 ca         1 43N       0.191100
      8 C15          6.4420     1.2530     6.3550 ca         1 43N      -0.149000
      9 C16          6.6160     2.4720     6.9800 ca         1 43N      -0.070000
     10 C19          5.4970     2.3680     4.4500 ca         1 43N      -0.162000
     11 C21          6.6190    -0.0040    -0.3190 c3         1 43N       0.252100
     12 C22          7.2210     1.3690    -0.4710 ca         1 43N      -0.075300
     13 C24          7.3830     3.4420    -1.6580 ca         1 43N      -0.108000
     14 C27          8.1670     1.8130     0.4330 ca         1 43N      -0.089500
     15 C30          9.8840    -1.8380    -0.7140 c3         1 43N      -0.012400
     16 C31          9.3650    -3.2720    -0.5730 c3         1 43N      -0.066400
     17 C32          8.2520    -3.3030     0.4780 c3         1 43N       0.018700
     18 C33          7.1390    -2.3380     0.0630 c3         1 43N       0.104800
     19 C35          7.7790    -5.3310     1.7680 cc         1 43N      -0.087400
     20 C25          8.3320     3.8840    -0.7570 ca         1 43N      -0.111000
     21 C26          8.7220     3.0700     0.2910 ca         1 43N      -0.108000
     22 C23          6.8310     2.1820    -1.5180 ca         1 43N      -0.089500
     23 C17          6.2290     3.6380     6.3460 ca         1 43N      -0.165000
     24 C5           4.2880    -0.0020     0.5820 ca         1 43N      -0.220000
     25 C6           5.6470    -0.0030     0.8330 ca         1 43N      -0.074300
     26 C4           3.3840     0.0000     1.6340 ca         1 43N       0.094600
     27 C18          5.6730     3.5870     5.0800 ca         1 43N       0.020400
     28 C36          7.2810    -6.5830     1.8600 cd         1 43N      -0.289400
     29 C37          6.6990    -7.1780     0.7140 c          1 43N       0.624700
     30 C40          7.1620    -5.2400    -0.5050 c          1 43N       0.587500
     31 C29          8.7240    -0.9150    -1.0940 c3         1 43N       0.130800
     32 C42          7.3420    -7.3350     3.1640 c3         1 43N       0.104100
     33 N39          6.6560    -6.4860    -0.4410 ns         1 43N      -0.127500
     34 N34          7.7110    -4.6600     0.5770 n          1 43N       0.070000
     35 N28          7.6860    -0.9800    -0.0570 n3         1 43N      -0.524600
     36 N3           2.0190     0.0000     1.3810 nu         1 43N      -0.417600
     37 O11          2.5180     1.0560     4.5460 o          1 43N      -0.873800
     38 O12          2.4730    -1.1630     4.5990 o          1 43N      -0.873800
     39 Cl           5.1880     5.0520     4.2850 cl         1 43N      -0.065400
     40 H1          -0.3610    -0.0160    -1.0210 hc         1 43N       0.005033
     41 H2          -0.3610    -0.8770     0.5240 hc         1 43N       0.005033
     42 H3          -0.3610     0.8920     0.4970 hc         1 43N       0.005033
     43 H4           1.8910    -0.8850    -0.5110 h1         1 43N       0.001200
     44 H5           1.8910     0.8850    -0.5110 h1         1 43N       0.001200
     45 H6           7.1890    -0.0030     2.3150 ha         1 43N       0.117000
     46 H7           6.7440     0.3400     6.8540 ha         1 43N       0.110000
     47 H8           7.0530     2.5140     7.9710 ha         1 43N       0.090000
     48 H9           5.0600     2.3280     3.4600 ha         1 43N       0.150000
     49 H10          6.0990    -0.2740    -1.2300 h1         1 43N       0.014700
     50 H11          7.0770     4.0800    -2.4790 ha         1 43N       0.097000
     51 H12          8.4720     1.1750     1.2540 ha         1 43N       0.115000
     52 H13         10.3080    -1.5140     0.2290 hc         1 43N       0.014700
     53 H14         10.6410    -1.8030    -1.4880 hc         1 43N       0.014700
     54 H15         10.1750    -3.9190    -0.2590 hc         1 43N       0.034200
     55 H16          8.9730    -3.6080    -1.5250 hc         1 43N       0.034200
     56 H17          8.6530    -2.9970     1.4360 h1         1 43N       0.053700
     57 H18          6.3580    -2.3450     0.8130 h1         1 43N       0.051700
     58 H19          6.7320    -2.6470    -0.8920 h1         1 43N       0.051700
     59 H20          8.2280    -4.8590     2.6340 h4         1 43N       0.142000
     60 H21          8.7660     4.8700    -0.8670 ha         1 43N       0.095000
     61 H22          9.4650     3.4170     0.9990 ha         1 43N       0.097000
     62 H23          6.0860     1.8360    -2.2250 ha         1 43N       0.115000
     63 H24          6.3670     4.5940     6.8380 ha         1 43N       0.102000
     64 H25          3.9280    -0.0020    -0.4390 ha         1 43N       0.106000
     65 H26          9.0860     0.1020    -1.1780 h1         1 43N       0.019700
     66 H27          8.3060    -1.2350    -2.0410 h1         1 43N       0.019700
     67 H28          7.9100    -8.2470     3.0290 hc         1 43N       0.009033
     68 H29          7.8210    -6.7180     3.9150 hc         1 43N       0.009033
     69 H30          6.3370    -7.5800     3.4870 hc         1 43N       0.009033
     70 H31          6.2490    -6.9010    -1.2560 hn         1 43N       0.201500
     71 H33          1.3680    -0.0190     2.1420 hn         1 43N       0.331800
     72 O38          6.2430    -8.3050     0.7720 o          1 43N      -0.673500
     73 O13          5.7080    -0.0010     4.4700 os         1 43N      -0.204200
     74 O41          7.1110    -4.6250    -1.5530 o          1 43N      -0.717500
@<TRIPOS>BOND
     1     1     2 1   
     2     1    40 1   
     3     1    41 1   
     4     1    42 1   
     5     2    36 1   
     6     2    43 1   
     7     2    44 1   
     8     3     4 ar  
     9     3    25 ar  
    10     3    45 1   
    11     4     5 ar  
    12     4    73 1   
    13     5     6 1   
    14     5    26 ar  
    15     6    37 1   
    16     6    38 1   
    17     7     8 ar  
    18     7    10 ar  
    19     7    73 1   
    20     8     9 ar  
    21     8    46 1   
    22     9    23 ar  
    23     9    47 1   
    24    10    27 ar  
    25    10    48 1   
    26    11    12 1   
    27    11    25 1   
    28    11    35 1   
    29    11    49 1   
    30    12    14 ar  
    31    12    22 ar  
    32    13    20 ar  
    33    13    22 ar  
    34    13    50 1   
    35    14    21 ar  
    36    14    51 1   
    37    15    16 1   
    38    15    31 1   
    39    15    52 1   
    40    15    53 1   
    41    16    17 1   
    42    16    54 1   
    43    16    55 1   
    44    17    18 1   
    45    17    34 1   
    46    17    56 1   
    47    18    35 1   
    48    18    57 1   
    49    18    58 1   
    50    19    28 2   
    51    19    34 1   
    52    19    59 1   
    53    20    21 ar  
    54    20    60 1   
    55    21    61 1   
    56    22    62 1   
    57    23    27 ar  
    58    23    63 1   
    59    24    25 ar  
    60    24    26 ar  
    61    24    64 1   
    62    26    36 1   
    63    27    39 1   
    64    28    29 1   
    65    28    32 1   
    66    29    33 1   
    67    29    72 2   
    68    30    33 1   
    69    30    34 1   
    70    30    74 2   
    71    31    35 1   
    72    31    65 1   
    73    31    66 1   
    74    32    67 1   
    75    32    68 1   
    76    32    69 1   
    77    33    70 1   
    78    36    71 1   
@<TRIPOS>SUBSTRUCTURE
     1 43N         1 TEMP              0 ****  ****    0 ROOT
