@<TRIPOS>MOLECULE
molecule
   37    38     1     0     0
SMALL
bcc


@<TRIPOS>ATOM
      1 CAN          0.0000     0.0000     0.0000 c3         1 43O      -0.032900
      2 CAH          1.5070     0.0000     0.0000 cc         1 43O      -0.038300
      3 NAG          2.2920     0.0000     1.1210 na         1 43O      -0.179400
      4 CAC          3.6240    -0.0010     0.7600 ca         1 43O      -0.043200
      5 CAD          4.8100    -0.0020     1.4850 ca         1 43O      -0.130000
      6 CAE          6.0190    -0.0020     0.8270 ca         1 43O      -0.129000
      7 CAF          6.0700    -0.0010    -0.5640 ca         1 43O       0.077100
      8 OAM          7.2720    -0.0000    -1.1980 oh         1 43O      -0.519100
      9 CAA          4.9030    -0.0000    -1.3030 ca         1 43O      -0.109000
     10 CAB          3.6700    -0.0000    -0.6460 ca         1 43O      -0.080800
     11 CAI          2.2770    -0.0050    -1.0980 cd         1 43O      -0.160400
     12 CAJ          1.8000    -0.0130    -2.5280 c3         1 43O      -0.017200
     13 CAK          1.6410    -1.4580    -3.0050 c3         1 43O       0.116000
     14 NAL          1.1760    -1.4650    -4.3950 ns         1 43O      -0.596900
     15 CAO          0.9650    -2.6360    -5.0280 c          1 43O       0.654100
     16 OAP          1.1590    -3.6830    -4.4480 o          1 43O      -0.572100
     17 CAQ          0.4870    -2.6440    -6.4580 c3         1 43O       0.063400
     18 OAR          0.3380    -3.9940    -6.9030 os         1 43O      -0.391600
     19 CAS         -0.1130    -4.1130    -8.2530 c3         1 43O       0.126700
     20 H1          -0.3610     0.8270    -0.5990 hc         1 43O       0.051367
     21 H2          -0.3610    -0.9320    -0.4170 hc         1 43O       0.051367
     22 H3          -0.3610     0.1050     1.0160 hc         1 43O       0.051367
     23 H4           1.9510     0.0010     2.0620 hn         1 43O       0.297700
     24 H5           4.7830    -0.0030     2.5680 ha         1 43O       0.129000
     25 H6           6.9400    -0.0030     1.3970 ha         1 43O       0.141000
     26 H7           7.5300     0.8880    -1.3840 ho         1 43O       0.413000
     27 H8           4.9440     0.0000    -2.3850 ha         1 43O       0.140000
     28 H9           0.8450     0.4960    -2.5930 hc         1 43O       0.046700
     29 H10          2.5230     0.4960    -3.1530 hc         1 43O       0.046700
     30 H11          2.5950    -1.9660    -2.9400 h1         1 43O       0.059700
     31 H12          0.9170    -1.9670    -2.3800 h1         1 43O       0.059700
     32 H13          1.0520    -0.6010    -4.8850 hn         1 43O       0.307500
     33 H14          1.2100    -2.1350    -7.0830 h1         1 43O       0.038200
     34 H15         -0.4670    -2.1350    -6.5220 h1         1 43O       0.038200
     35 H16         -1.0790    -3.6340    -8.3550 h1         1 43O       0.031367
     36 H17         -0.2010    -5.1610    -8.5130 h1         1 43O       0.031367
     37 H18          0.5990    -3.6350    -8.9150 h1         1 43O       0.031367
@<TRIPOS>BOND
     1     8     7 1
     2     7     6 ar
     3     7     9 ar
     4     6     5 ar
     5     9    10 ar
     6     5     4 ar
     7    10     4 ar
     8    10    11 1
     9    16    15 2
    10    19    18 1
    11     4     3 1
    12    12    11 1
    13    12    13 1
    14    11     2 2
    15    15    17 1
    16    15    14 1
    17    18    17 1
    18    14    13 1
    19     3     2 1
    20     2     1 1
    21     1    20 1
    22     1    21 1
    23     1    22 1
    24     3    23 1
    25     5    24 1
    26     6    25 1
    27     8    26 1
    28     9    27 1
    29    12    28 1
    30    12    29 1
    31    13    30 1
    32    13    31 1
    33    14    32 1
    34    17    33 1
    35    17    34 1
    36    19    35 1
    37    19    36 1
    38    19    37 1
@<TRIPOS>SUBSTRUCTURE
     1 43O         1 TEMP              0 ****  ****    0 ROOT
