@<TRIPOS>MOLECULE
molecule
   34    36     1     0     0
SMALL
bcc


@<TRIPOS>ATOM
      1 OAQ          0.0000     0.0000     0.0000 oh         1 43P      -0.497100
      2 CAF          1.3590     0.0000     0.0000 ca         1 43P       0.169100
      3 CAJ          2.0530     0.0000     1.1980 ca         1 43P      -0.265000
      4 CAL          3.4400    -0.0060     1.1960 ca         1 43P       0.151100
      5 OAR          4.1190    -0.0070     2.3730 oh         1 43P      -0.505100
      6 CAM          4.1360     0.0000    -0.0040 ca         1 43P      -0.125300
      7 CAS          5.6430    -0.0000     0.0010 c3         1 43P      -0.025100
      8 CAT          6.1520     1.4420     0.0030 c3         1 43P      -0.087100
      9 CAG          3.4520    -0.0000    -1.2030 ca         1 43P      -0.048000
     10 CAC          2.0600     0.0010    -1.2100 ca         1 43P      -0.141500
     11 CAB          1.3230     0.0010    -2.4950 cc         1 43P       0.432800
     12 NAE          0.3110    -0.7790    -2.8100 nd         1 43P      -0.499800
     13 NAI         -0.1010    -0.4670    -4.1100 na         1 43P      -0.044600
     14 CAK          0.6860     0.5250    -4.5800 cd         1 43P      -0.110300
     15 CAA          1.5800     0.8470    -3.6040 cc         1 43P      -0.307800
     16 CAD          2.6350     1.8860    -3.6890 cc         1 43P       0.407800
     17 CAP          3.4890     2.0780    -4.7260 cd         1 43P      -0.278600
     18 NAN          4.2890     3.1350    -4.3880 na         1 43P      -0.300900
     19 CAO          3.9030     3.5570    -3.1640 cd         1 43P       0.392400
     20 NAH          2.9140     2.8140    -2.7520 nc         1 43P      -0.676000
     21 HAQ         -0.3140    -0.7210     0.5190 ho         1 43P       0.419000
     22 HAJ          1.5130     0.0360     2.1360 ha         1 43P       0.139000
     23 HAR          3.6950    -0.5900     2.9810 ho         1 43P       0.419000
     24 HAS1         6.0000    -0.5110     0.8870 hc         1 43P       0.047200
     25 HAS2         6.0070    -0.5110    -0.8820 hc         1 43P       0.047200
     26 HAT1         5.3160     2.1210     0.1230 hc         1 43P       0.035700
     27 HAT2         6.6540     1.6490    -0.9340 hc         1 43P       0.035700
     28 HAT3         6.8480     1.5790     0.8230 hc         1 43P       0.035700
     29 HAG          3.9990     0.0030    -2.1390 ha         1 43P       0.147000
     30 HAI         -0.8500    -0.9050    -4.6080 hn         1 43P       0.329700
     31 HAK          0.6150     0.9870    -5.5580 h4         1 43P       0.169000
     32 HAP          3.5310     1.5040    -5.6440 h4         1 43P       0.174000
     33 HAN          5.0250     3.5240    -4.9440 hn         1 43P       0.296700
     34 HAO          4.3420     4.3830    -2.6160 h5         1 43P       0.065100
@<TRIPOS>BOND
     1     1     2 1
     2     1    21 1
     3     2     3 ar
     4     2    10 ar
     5     3     4 ar
     6     3    22 1
     7     4     5 1
     8     4     6 ar
     9     5    23 1
    10     6     7 1
    11     6     9 ar
    12     7     8 1
    13     7    24 1
    14     7    25 1
    15     8    26 1
    16     8    27 1
    17     8    28 1
    18     9    10 ar
    19     9    29 1
    20    10    11 1
    21    11    12 2
    22    11    15 1
    23    12    13 1
    24    13    14 1
    25    13    30 1
    26    14    15 2
    27    14    31 1
    28    15    16 1
    29    16    17 2
    30    16    20 1
    31    17    18 1
    32    17    32 1
    33    18    19 1
    34    18    33 1
    35    19    20 2
    36    19    34 1
@<TRIPOS>SUBSTRUCTURE
     1 43P         1 TEMP              0 ****  ****    0 ROOT
