@<TRIPOS>MOLECULE
43P
   34    36     1     0     0
SMALL
bcc


@<TRIPOS>ATOM
      1 OAQ         0.0070    0.3020   -0.4310 oh        1 43P     -0.482100
      2 CAF         1.3490    0.1600   -0.1720 ca        1 43P      0.183100
      3 CAJ         1.8590    0.2570    1.1290 ca        1 43P     -0.312000
      4 CAL         3.2370    0.1160    1.3330 ca        1 43P      0.168100
      5 OAR         3.7860    0.1980    2.5930 oh        1 43P     -0.497100
      6 CAM         4.1150   -0.1190    0.2580 ca        1 43P     -0.141300
      7 CAS         5.5790   -0.2770    0.4690 c3        1 43P     -0.022100
      8 CAT         6.3560    0.9140   -0.0410 c3        1 43P     -0.091100
      9 CAG         3.5760   -0.2120   -1.0290 ca        1 43P     -0.020000
     10 CAC         2.2060   -0.0780   -1.2680 ca        1 43P     -0.170500
     11 CAB         1.6770   -0.1990   -2.6170 cc        1 43P      0.403800
     12 NAE         0.8210   -1.1960   -3.0010 nd        1 43P     -0.498800
     13 NAI         0.5310   -0.9850   -4.2830 na        1 43P     -0.017600
     14 CAK         1.1650    0.1440   -4.8010 cd        1 43P     -0.152300
     15 CAA         1.9250    0.6870   -3.7470 cc        1 43P     -0.257800
     16 CAD         2.7270    1.8690   -3.8130 cc        1 43P      0.396800
     17 CAP         2.4370    3.0190   -4.5870 cd        1 43P     -0.254600
     18 NAN         3.4740    3.9190   -4.3550 na        1 43P     -0.321900
     19 CAO         4.3540    3.3010   -3.4570 cd        1 43P      0.386400
     20 NAH         3.9310    2.0670   -3.1150 nc        1 43P     -0.654000
     21 HAQ        -0.4470    0.4240    0.4150 ho        1 43P      0.414000
     22 HAJ         1.1850    0.4410    1.9760 ha        1 43P      0.131000
     23 HAR         3.0660    0.3440    3.2230 ho        1 43P      0.416000
     24 HAS1        5.9260   -1.2020   -0.0660 hc        1 43P      0.049700
     25 HAS2        5.7930   -0.4230    1.5620 hc        1 43P      0.049700
     26 HAT1        6.0880    1.8330    0.5360 hc        1 43P      0.035367
     27 HAT2        6.1290    1.0980   -1.1190 hc        1 43P      0.035367
     28 HAT3        7.4520    0.7330    0.0710 hc        1 43P      0.035367
     29 HAG         4.2550   -0.3910   -1.8790 ha        1 43P      0.157000
     30 HAI        -0.0830   -1.5980   -4.7630 hn        1 43P      0.319700
     31 HAK         1.0440    0.4650   -5.8330 h4        1 43P      0.173000
     32 HAP         1.5990    3.2400   -5.2430 h4        1 43P      0.176000
     33 HAN         3.5600    4.8200   -4.7400 hn        1 43P      0.299700
     34 HAO         5.2660    3.7840   -3.0940 h5        1 43P      0.060100
@<TRIPOS>BOND
     1    1    2 1   
     2    1   21 1   
     3    2    3 ar  
     4    2   10 ar  
     5    3    4 ar  
     6    3   22 1   
     7    4    5 1   
     8    4    6 ar  
     9    5   23 1   
    10    6    7 1   
    11    6    9 ar  
    12    7    8 1   
    13    7   24 1   
    14    7   25 1   
    15    8   26 1   
    16    8   27 1   
    17    8   28 1   
    18    9   10 ar  
    19    9   29 1   
    20   10   11 1   
    21   11   12 2   
    22   11   15 1   
    23   12   13 1   
    24   13   14 1   
    25   13   30 1   
    26   14   15 2   
    27   14   31 1   
    28   15   16 1   
    29   16   17 2   
    30   16   20 1   
    31   17   18 1   
    32   17   32 1   
    33   18   19 1   
    34   18   33 1   
    35   19   20 2   
    36   19   34 1   
@<TRIPOS>SUBSTRUCTURE
     1 43P         1 TEMP              0 ****  ****    0 ROOT
