@<TRIPOS>MOLECULE
molecule
   37    39     1     0     0
SMALL
bcc


@<TRIPOS>ATOM
      1 C12          0.0000     0.0000     0.0000 c3         1 43R       0.154800
      2 C13          1.5320     0.0000     0.0000 c3         1 43R      -0.095700
      3 C14         -1.8460     1.3280     0.6450 ca         1 43R       0.017300
      4 C15         -2.5170     2.3000     1.3800 ca         1 43R      -0.155000
      5 C16         -3.8630     2.5180     1.1100 ca         1 43R       0.041800
      6 C1           6.1840    -0.8040     5.6640 c3         1 43R      -0.164100
      7 C5           3.4790    -0.2670     3.1130 cc         1 43R       0.541300
      8 C2           4.8530    -0.4830     5.0320 c          1 43R       0.654100
      9 O3           3.9160    -0.1510     5.7280 o          1 43R      -0.585100
     10 N4           4.7060    -0.5630     3.6950 ns         1 43R      -0.519400
     11 N6           3.2300    -0.3130     1.8440 nd         1 43R      -0.742000
     12 C7           2.0060     0.0000     1.4460 cd         1 43R       0.409600
     13 C8           1.1840     0.3290     2.4610 cc         1 43R      -0.224700
     14 S9           2.0780     0.2120     3.9680 ss         1 43R      -0.060300
     15 C10         -0.2620     0.7280     2.2960 c3         1 43R       0.264100
     16 N11         -0.4930     1.0670     0.8820 nh         1 43R      -0.590000
     17 C17         -4.4850     1.7650     0.1260 ca         1 43R       0.303200
     18 N18         -3.8170     0.8510    -0.5510 nb         1 43R      -0.635000
     19 C19         -2.5410     0.6150    -0.3250 ca         1 43R       0.325200
     20 O20         -4.5600     3.4570     1.8030 os         1 43R      -0.323900
     21 C21         -5.9390     3.6200     1.4660 c3         1 43R       0.126700
     22 H1          -0.3370    -0.9490     0.3990 h1         1 43R       0.055200
     23 H2          -0.3370     0.2130    -1.0070 h1         1 43R       0.055200
     24 H3           1.8960     0.8880    -0.5030 hc         1 43R       0.068700
     25 H4           1.8960    -0.8880    -0.5030 hc         1 43R       0.068700
     26 H5          -2.0030     2.8730     2.1430 ha         1 43R       0.158000
     27 H6           6.9410    -0.1390     5.2670 hc         1 43R       0.069033
     28 H7           6.4510    -1.8300     5.4410 hc         1 43R       0.069033
     29 H8           6.1150    -0.6740     6.7370 hc         1 43R       0.069033
     30 H9           5.4710    -0.8620     3.1240 hn         1 43R       0.344500
     31 H10         -0.4740     1.5910     2.9150 h1         1 43R       0.055700
     32 H11         -0.9020    -0.0980     2.5810 h1         1 43R       0.055700
     33 H12         -5.5340     1.9290    -0.0900 h4         1 43R       0.025100
     34 H13         -2.0270    -0.1440    -0.9030 h4         1 43R       0.029100
     35 H14         -6.3740     4.3930     2.0880 h1         1 43R       0.044033
     36 H15         -6.4640     2.6870     1.6320 h1         1 43R       0.044033
     37 H16         -6.0260     3.9030     0.4240 h1         1 43R       0.044033
@<TRIPOS>BOND
     1    21    20 1
     2    20     5 1
     3     5    17 ar
     4     5     4 ar
     5    17    18 ar
     6     4     3 ar
     7    18    19 ar
     8     3    19 ar
     9     3    16 1
    10    15    13 1
    11    15    16 1
    12    14    13 1
    13    14     7 1
    14     9     8 2
    15    13    12 2
    16    16     1 1
    17     8     6 1
    18     8    10 1
    19     1     2 1
    20     7    10 1
    21     7    11 2
    22    12    11 1
    23    12     2 1
    24     1    22 1
    25     1    23 1
    26     2    24 1
    27     2    25 1
    28     4    26 1
    29     6    27 1
    30     6    28 1
    31     6    29 1
    32    10    30 1
    33    15    31 1
    34    15    32 1
    35    17    33 1
    36    19    34 1
    37    21    35 1
    38    21    36 1
    39    21    37 1
@<TRIPOS>SUBSTRUCTURE
     1 43R         1 TEMP              0 ****  ****    0 ROOT
