@<TRIPOS>MOLECULE
43S
   28    31     1     0     0
SMALL
bcc


@<TRIPOS>ATOM
      1 C4         -0.0060   -0.2620    0.0050 cp        1 43S      0.603800
      2 C5         -0.7760   -0.2920    1.2570 cp        1 43S     -0.144500
      3 C6         -2.0900    0.1730    1.3410 ca        1 43S      0.108100
      4 C11        -0.9440   -0.8390    3.6350 ca        1 43S     -0.054900
      5 C7         -4.0970    1.0540    0.9100 cc        1 43S     -0.015900
      6 C8         -4.1330    0.7230    2.2410 cd        1 43S     -0.172200
      7 C9         -2.8380    0.1460    2.5620 ca        1 43S     -0.119800
      8 C10        -2.2560   -0.3680    3.7140 ca        1 43S     -0.042000
      9 C12        -0.2160   -0.8000    2.4350 ca        1 43S     -0.042000
     10 N1          1.4430   -0.1600   -2.4710 nb        1 43S     -0.757000
     11 N2          3.2760    0.7680   -1.0510 na        1 43S     -0.390000
     12 C3          1.3300    0.2110    0.0000 ca        1 43S     -0.203200
     13 N3          2.1970    0.7070    0.9880 nc        1 43S     -0.528100
     14 BR         -0.1290   -1.5430    5.1700 br        1 43S     -0.085100
     15 O          -2.8580    0.7320    0.3230 os        1 43S     -0.183200
     16 N4         -0.5900   -0.6770   -1.1310 nb        1 43S     -0.742000
     17 C           0.1500   -0.6350   -2.3200 ca        1 43S      0.886900
     18 N          -0.4620   -1.1830   -3.4530 nh        1 43S     -0.923500
     19 C1          2.0020    0.2410   -1.3030 ca        1 43S      0.465800
     20 C2          3.3260    1.0220    0.3390 cd        1 43S      0.406700
     21 H1         -4.7980    1.5020    0.2110 h4        1 43S      0.192000
     22 H2         -4.9530    0.8550    2.9410 ha        1 43S      0.168000
     23 H3         -2.8210   -0.3990    4.6570 ha        1 43S      0.154000
     24 H4          0.8220   -1.1760    2.4110 ha        1 43S      0.168000
     25 H5          3.9890    0.9150   -1.7140 hn        1 43S      0.317700
     26 H7         -1.4500   -1.2860   -3.4170 hn        1 43S      0.428800
     27 H8         -0.0770   -0.9310   -4.3330 hn        1 43S      0.428800
     28 H9          4.2260    1.4420    0.8040 h5        1 43S      0.073800
@<TRIPOS>BOND
     1    1    2 1
     2    1   12 ar
     3    1   16 ar
     4    2    3 ar
     5    2    9 ar
     6    3    7 ar
     7    3   15 1
     8    4    8 ar
     9    4    9 ar
    10    4   14 1
    11    5    6 2
    12    5   15 1
    13    5   21 1
    14    6    7 1
    15    6   22 1
    16    7    8 ar
    17    8   23 1
    18    9   24 1
    19   10   17 ar
    20   10   19 ar
    21   11   19 1
    22   11   20 1
    23   11   25 1
    24   12   13 1
    25   12   19 ar
    26   13   20 2
    27   16   17 ar
    28   17   18 1
    29   18   26 1
    30   18   27 1
    31   20   28 1
@<TRIPOS>SUBSTRUCTURE
     1 43S         1 TEMP              0 ****  ****    0 ROOT
