@<TRIPOS>MOLECULE
43T
   61    63     1     0     0
SMALL
bcc


@<TRIPOS>ATOM
      1 C1           0.0000     0.0000     0.0000 c3         1 43T      -0.109400
      2 C2           1.5090     0.0000     0.0000 c          1 43T       0.612500
      3 N3           2.1680     0.0000     1.1770 n          1 43T      -0.057300
      4 C4           1.4640    -0.0120     2.3630 c2         1 43T       0.101800
      5 N5           0.2190     0.3450     2.4150 n2         1 43T      -0.434900
      6 C6          -0.4990     0.7820     1.2170 c3         1 43T       0.103200
      7 C7          -0.2570     2.2770     0.9950 c3         1 43T      -0.023100
      8 C8          -1.9970     0.5330     1.4030 c3         1 43T      -0.039700
      9 N9           2.0980    -0.4110     3.5170 nz         1 43T       0.168400
     10 C10          3.6330     0.0120     1.1950 c3         1 43T       0.097300
     11 O11          2.1220    -0.0000    -1.0460 o          1 43T      -0.561500
     12 C12         -2.5220     1.4090     2.5420 c3         1 43T      -0.004100
     13 C13         -2.7360     0.8800     0.1090 c3         1 43T      -0.004100
     14 C14          4.1240     1.4370     1.2080 ca         1 43T      -0.150300
     15 C15          4.3560     2.0960     0.0170 ca         1 43T      -0.016000
     16 C16          4.8100     3.4140     0.0300 ca         1 43T      -0.099600
     17 C17          5.0260     4.0620     1.2480 ca         1 43T      -0.091000
     18 C18          4.7890     3.3920     2.4330 ca         1 43T       0.121900
     19 C19          4.3330     2.0830     2.4130 ca         1 43T      -0.135000
     20 F20          4.9970     4.0150     3.6130 f          1 43T      -0.114900
     21 C21          5.0620     4.1240    -1.2420 c          1 43T       0.580700
     22 O22          4.8750     3.5590    -2.3010 o          1 43T      -0.628100
     23 N23          5.5000     5.3990    -1.2280 ns         1 43T      -0.182900
     24 C24          5.7500     6.1020    -2.4890 c3         1 43T       0.080000
     25 C25          6.7600     7.1980    -2.2610 ca         1 43T      -0.120300
     26 C26          7.7410     7.4390    -3.2050 ca         1 43T      -0.095500
     27 C27          8.6680     8.4430    -2.9960 ca         1 43T      -0.089500
     28 C28          8.6140     9.2060    -1.8440 ca         1 43T      -0.088000
     29 C29          7.6330     8.9640    -0.9010 ca         1 43T      -0.089500
     30 C30          6.7020     7.9630    -1.1120 ca         1 43T      -0.095500
     31 C31          4.4430     6.7120    -2.9990 c3         1 43T      -0.013100
     32 H1          -0.3230    -1.0270     0.1210 hc         1 43T       0.078700
     33 H2          -0.3230     0.5370    -0.8840 hc         1 43T       0.078700
     34 H3           0.4600     2.4120     0.1950 hc         1 43T       0.033367
     35 H4          -1.1910     2.7580     0.7290 hc         1 43T       0.033367
     36 H5           0.1300     2.7190     1.9060 hc         1 43T       0.033367
     37 H6          -2.1620    -0.5100     1.6440 hc         1 43T       0.035700
     38 H7           2.7210    -1.1660     3.3110 hn         1 43T       0.229467
     39 H8           2.6160     0.3570     3.8950 hn         1 43T       0.229467
     40 H9           4.0090    -0.4920     0.3130 h1         1 43T       0.042700
     41 H10          3.9870    -0.5000     2.0820 h1         1 43T       0.042700
     42 H11         -3.4770     1.0260     2.8820 hc         1 43T       0.017200
     43 H12         -1.8150     1.3970     3.3630 hc         1 43T       0.017200
     44 H13         -2.6470     2.4250     2.1880 hc         1 43T       0.017200
     45 H14         -3.7940     0.9870     0.3150 hc         1 43T       0.017200
     46 H15         -2.5870     0.0870    -0.6150 hc         1 43T       0.017200
     47 H16         -2.3490     1.8100    -0.2900 hc         1 43T       0.017200
     48 H17          4.1870     1.5890    -0.9250 ha         1 43T       0.158000
     49 H18          5.3800     5.0850     1.2640 ha         1 43T       0.134000
     50 H19          4.1480     1.5620     3.3440 ha         1 43T       0.083000
     51 H20          5.6740     5.8590    -0.3560 hn         1 43T       0.184500
     52 H21          6.1340     5.4030    -3.2220 h1         1 43T       0.063700
     53 H22          7.7830     6.8410    -4.1070 ha         1 43T       0.104000
     54 H23          9.4370     8.6320    -3.7350 ha         1 43T       0.108000
     55 H24          9.3420     9.9910    -1.6800 ha         1 43T       0.110000
     56 H25          7.5890     9.5630     0.0010 ha         1 43T       0.108000
     57 H26          5.9330     7.7730    -0.3730 ha         1 43T       0.104000
     58 H27          4.6400     7.6960    -3.4090 hc         1 43T       0.016033
     59 H28          4.0250     6.0770    -3.7700 hc         1 43T       0.016033
     60 H29          3.7400     6.7970    -2.1800 hc         1 43T       0.016033
     61 H93          1.4170    -0.7240     4.1800 hn         1 43T       0.229467
@<TRIPOS>BOND
     1     1     2 1   
     2     1     6 1   
     3     1    32 1   
     4     1    33 1   
     5     2     3 1   
     6     2    11 2   
     7     3     4 1   
     8     3    10 1   
     9     4     5 2   
    10     4     9 1   
    11     5     6 1   
    12     6     7 1   
    13     6     8 1   
    14     7    34 1   
    15     7    35 1   
    16     7    36 1   
    17     8    12 1   
    18     8    13 1   
    19     8    37 1   
    20     9    38 1   
    21     9    39 1   
    22     9    61 1   
    23    10    14 1   
    24    10    40 1   
    25    10    41 1   
    26    12    42 1   
    27    12    43 1   
    28    12    44 1   
    29    13    45 1   
    30    13    46 1   
    31    13    47 1   
    32    14    15 ar  
    33    14    19 ar  
    34    15    16 ar  
    35    15    48 1   
    36    16    17 ar  
    37    16    21 1   
    38    17    18 ar  
    39    17    49 1   
    40    18    19 ar  
    41    18    20 1   
    42    19    50 1   
    43    21    22 2   
    44    21    23 1   
    45    23    24 1   
    46    23    51 1   
    47    24    25 1   
    48    24    31 1   
    49    24    52 1   
    50    25    26 ar  
    51    25    30 ar  
    52    26    27 ar  
    53    26    53 1   
    54    27    28 ar  
    55    27    54 1   
    56    28    29 ar  
    57    28    55 1   
    58    29    30 ar  
    59    29    56 1   
    60    30    57 1   
    61    31    58 1   
    62    31    59 1   
    63    31    60 1   
@<TRIPOS>SUBSTRUCTURE
     1 43T         1 TEMP              0 ****  ****    0 ROOT
