@<TRIPOS>MOLECULE
molecule
   61    63     1     0     0
SMALL
bcc


@<TRIPOS>ATOM
      1 C1           0.0000     0.0000     0.0000 c3         1 43T      -0.162400
      2 C2           1.5090     0.0000     0.0000 c          1 43T       0.698500
      3 N3           2.1680     0.0000     1.1770 n          1 43T      -0.435300
      4 C4           1.4640    -0.0120     2.3630 c2         1 43T       0.494800
      5 N5           0.2190     0.3450     2.4150 n2         1 43T      -0.580900
      6 C6          -0.4990     0.7820     1.2170 c3         1 43T       0.141200
      7 C7          -0.2570     2.2770     0.9950 c3         1 43T      -0.101100
      8 C8          -1.9970     0.5330     1.4030 c3         1 43T      -0.056700
      9 N9           2.0980    -0.4110     3.5170 nz         1 43T      -0.743600
     10 C10          3.6330     0.0120     1.1950 c3         1 43T       0.136300
     11 O11          2.1220    -0.0000    -1.0460 o          1 43T      -0.537500
     12 C12         -2.5220     1.4090     2.5420 c3         1 43T      -0.093600
     13 C13         -2.7360     0.8800     0.1090 c3         1 43T      -0.093600
     14 C14          4.1240     1.4370     1.2080 ca         1 43T      -0.128300
     15 C15          4.3560     2.0960     0.0170 ca         1 43T      -0.053000
     16 C16          4.8100     3.4140     0.0300 ca         1 43T      -0.096600
     17 C17          5.0260     4.0620     1.2480 ca         1 43T      -0.123000
     18 C18          4.7890     3.3920     2.4330 ca         1 43T       0.144900
     19 C19          4.3330     2.0830     2.4130 ca         1 43T      -0.168000
     20 F20          4.9970     4.0150     3.6130 f          1 43T      -0.123900
     21 C21          5.0620     4.1240    -1.2420 c          1 43T       0.664700
     22 O22          4.8750     3.5590    -2.3010 o          1 43T      -0.587100
     23 N23          5.5000     5.3990    -1.2280 ns         1 43T      -0.568900
     24 C24          5.7500     6.1020    -2.4890 c3         1 43T       0.164000
     25 C25          6.7600     7.1980    -2.2610 ca         1 43T      -0.107300
     26 C26          7.7410     7.4390    -3.2050 ca         1 43T      -0.123000
     27 C27          8.6680     8.4430    -2.9960 ca         1 43T      -0.119000
     28 C28          8.6140     9.2060    -1.8440 ca         1 43T      -0.118000
     29 C29          7.6330     8.9640    -0.9010 ca         1 43T      -0.119000
     30 C30          6.7020     7.9630    -1.1120 ca         1 43T      -0.123000
     31 C31          4.4430     6.7120    -2.9990 c3         1 43T      -0.105100
     32 H1          -0.3230    -1.0270     0.1210 hc         1 43T       0.111700
     33 H2          -0.3230     0.5370    -0.8840 hc         1 43T       0.111700
     34 H3           0.4600     2.4120     0.1950 hc         1 43T       0.064033
     35 H4          -1.1910     2.7580     0.7290 hc         1 43T       0.064033
     36 H5           0.1300     2.7190     1.9060 hc         1 43T       0.064033
     37 H6          -2.1620    -0.5100     1.6440 hc         1 43T       0.062700
     38 H7           2.7210    -1.1660     3.3110 hn         1 43T       0.476800
     39 H8           2.6160     0.3570     3.8950 hn         1 43T       0.476800
     40 H9           4.0090    -0.4920     0.3130 h1         1 43T       0.073700
     41 H10          3.9870    -0.5000     2.0820 h1         1 43T       0.073700
     42 H11         -3.4770     1.0260     2.8820 hc         1 43T       0.048700
     43 H12         -1.8150     1.3970     3.3630 hc         1 43T       0.048700
     44 H13         -2.6470     2.4250     2.1880 hc         1 43T       0.048700
     45 H14         -3.7940     0.9870     0.3150 hc         1 43T       0.048700
     46 H15         -2.5870     0.0870    -0.6150 hc         1 43T       0.048700
     47 H16         -2.3490     1.8100    -0.2900 hc         1 43T       0.048700
     48 H17          4.1870     1.5890    -0.9250 ha         1 43T       0.188000
     49 H18          5.3800     5.0850     1.2640 ha         1 43T       0.162000
     50 H19          4.1480     1.5620     3.3440 ha         1 43T       0.101000
     51 H20          5.6740     5.8590    -0.3560 hn         1 43T       0.317500
     52 H21          6.1340     5.4030    -3.2220 h1         1 43T       0.089700
     53 H22          7.7830     6.8410    -4.1070 ha         1 43T       0.127500
     54 H23          9.4370     8.6320    -3.7350 ha         1 43T       0.137000
     55 H24          9.3420     9.9910    -1.6800 ha         1 43T       0.139000
     56 H25          7.5890     9.5630     0.0010 ha         1 43T       0.137000
     57 H26          5.9330     7.7730    -0.3730 ha         1 43T       0.127500
     58 H27          4.6400     7.6960    -3.4090 hc         1 43T       0.049033
     59 H28          4.0250     6.0770    -3.7700 hc         1 43T       0.049033
     60 H29          3.7400     6.7970    -2.1800 hc         1 43T       0.049033
     61 H93          1.4170    -0.7240     4.1800 hn         1 43T       0.476800
@<TRIPOS>BOND
     1    28    27 ar  
     2    28    29 ar  
     3    27    26 ar  
     4    29    30 ar  
     5    26    25 ar  
     6    12     8 1   
     7    30    25 ar  
     8    25    24 1   
     9    13     8 1   
    10     7     6 1   
    11     8     6 1   
    12    31    24 1   
    13    24    23 1   
    14     6     1 1   
    15     6     5 1   
    16     1     2 1   
    17    23    21 1   
    18     5     4 2   
    19    22    21 2   
    20    21    16 1   
    21     2    11 2   
    22     2     3 1   
    23     4     3 1   
    24     4     9 1   
    25     3    10 1   
    26    16    15 ar  
    27    16    17 ar  
    28    15    14 ar  
    29    17    18 ar  
    30    14    10 1   
    31    14    19 ar  
    32    18    19 ar  
    33    18    20 1   
    34     1    32 1   
    35     1    33 1   
    36     7    34 1   
    37     7    35 1   
    38     7    36 1   
    39     8    37 1   
    40     9    38 1   
    41     9    39 1   
    42    10    40 1   
    43    10    41 1   
    44    12    42 1   
    45    12    43 1   
    46    12    44 1   
    47    13    45 1   
    48    13    46 1   
    49    13    47 1   
    50    15    48 1   
    51    17    49 1   
    52    19    50 1   
    53    23    51 1   
    54    24    52 1   
    55    26    53 1   
    56    27    54 1   
    57    28    55 1   
    58    29    56 1   
    59    30    57 1   
    60    31    58 1   
    61    31    59 1   
    62    31    60 1   
    63    61     9 1   
@<TRIPOS>SUBSTRUCTURE
     1 43T         1 TEMP              0 ****  ****    0 ROOT
