@<TRIPOS>MOLECULE
molecule
   29    31     1     0     0
SMALL
bcc


@<TRIPOS>ATOM
      1 C4           0.0000     0.0000     0.0000 ca         1 43U      -0.075900
      2 C5           1.3800     0.0000     0.0000 ca         1 43U      -0.031000
      3 C6           2.0760     0.0000     1.2090 cp         1 43U      -0.199500
      4 C11          5.0240     0.0010    -2.0280 cc         1 43U       0.432700
      5 C7           3.5560    -0.0010     1.2150 cp         1 43U       0.598800
      6 C8           4.2800    -0.0000     0.0090 ca         1 43U      -0.160200
      7 C9           5.6860     0.0040     0.0760 ca         1 43U       0.455800
      8 C10          5.5570     0.0070     2.3760 ca         1 43U       0.950900
      9 N1           6.2130     0.0080     3.5960 nv         1 43U      -1.054500
     10 N2           4.2320     0.0000     2.3620 nb         1 43U      -0.729000
     11 C3          -0.6970     0.0010     1.1970 ca         1 43U      -0.044000
     12 N3           6.1270     0.0070    -1.2240 na         1 43U      -0.366000
     13 Br          -0.9420     0.0080    -1.6390 br         1 43U      -0.098100
     14 C2          -0.0190     0.0000     2.4000 ca         1 43U      -0.243000
     15 C1           1.3680     0.0000     2.4160 ca         1 43U       0.195100
     16 O            2.0360    -0.0010     3.5980 os         1 43U      -0.277900
     17 C            1.2460     0.0000     4.7890 c3         1 43U       0.119700
     18 N            6.2770     0.0070     1.2640 nb         1 43U      -0.770000
     19 N4           3.9430     0.0000    -1.3030 nd         1 43U      -0.594100
     20 H1           1.9220    -0.0010    -0.9380 ha         1 43U       0.193000
     21 H3           6.4630    -0.8580     4.0310 hn         1 43U       0.443800
     22 H4           6.4590     0.8750     4.0310 hn         1 43U       0.443800
     23 H5          -1.7800     0.0010     1.1890 ha         1 43U       0.142000
     24 H6           7.0810     0.0090    -1.5260 hn         1 43U       0.315700
     25 H7          -0.5710     0.0000     3.3330 ha         1 43U       0.143000
     26 H8           0.6200    -0.8840     4.8090 h1         1 43U       0.042033
     27 H9           1.8980    -0.0000     5.6550 h1         1 43U       0.042033
     28 H10          0.6220     0.8850     4.8080 h1         1 43U       0.042033
     29 H2           5.0460    -0.0030    -3.1110 h5         1 43U       0.080800
@<TRIPOS>BOND
     1    13     1 1   
     2     9     8 1   
     3     8    10 ar  
     4     8    18 ar  
     5     2     1 ar  
     6     2     3 ar  
     7    10     5 ar  
     8     1    11 ar  
     9    18     7 ar  
    10     5     3 1   
    11     5     6 ar  
    12     3    15 ar  
    13    11    14 ar  
    14     7     6 ar  
    15     7    12 1   
    16     6    19 1   
    17    12     4 1   
    18    15    14 ar  
    19    15    16 1   
    20    19     4 2   
    21    16    17 1   
    22     2    20 1   
    23     4    29 1   
    24     9    21 1   
    25     9    22 1   
    26    11    23 1   
    27    12    24 1   
    28    14    25 1   
    29    17    26 1   
    30    17    27 1   
    31    17    28 1   
@<TRIPOS>SUBSTRUCTURE
     1 43U         1 TEMP              0 ****  ****    0 ROOT
