@<TRIPOS>MOLECULE
43U
   29    31     1     0     0
SMALL
bcc


@<TRIPOS>ATOM
      1 C4           0.0000     0.0000     0.0000 ca         1 43U      -0.018900
      2 C5           1.3800     0.0000     0.0000 ca         1 43U      -0.029000
      3 C6           2.0760     0.0000     1.2090 cp         1 43U      -0.210500
      4 C11          5.0240     0.0010    -2.0280 cc         1 43U       0.242700
      5 C7           3.5560    -0.0010     1.2150 cp         1 43U       0.558800
      6 C8           4.2800    -0.0000     0.0090 ca         1 43U      -0.177200
      7 C9           5.6860     0.0040     0.0760 ca         1 43U       0.217800
      8 C10          5.5570     0.0070     2.3760 ca         1 43U       0.719900
      9 N1           6.2130     0.0080     3.5960 nv         1 43U      -0.635500
     10 N2           4.2320     0.0000     2.3620 nb         1 43U      -0.618000
     11 C3          -0.6970     0.0010     1.1970 ca         1 43U      -0.020000
     12 N3           6.1270     0.0070    -1.2240 na         1 43U       0.168000
     13 Br          -0.9420     0.0080    -1.6390 br         1 43U      -0.135100
     14 C2          -0.0190     0.0000     2.4000 ca         1 43U      -0.230000
     15 C1           1.3680     0.0000     2.4160 ca         1 43U       0.197100
     16 O            2.0360    -0.0010     3.5980 os         1 43U      -0.261900
     17 C            1.2460     0.0000     4.7890 c3         1 43U       0.230700
     18 N            6.2770     0.0070     1.2640 nb         1 43U      -0.625000
     19 N4           3.9430     0.0000    -1.3030 nd         1 43U      -0.494100
     20 H1           1.9220    -0.0010    -0.9380 ha         1 43U       0.165000
     21 H3           6.4630    -0.8580     4.0310 hn         1 43U       0.277800
     22 H4           6.4590     0.8750     4.0310 hn         1 43U       0.277800
     23 H5          -1.7800     0.0010     1.1890 ha         1 43U       0.111000
     24 H6           7.0810     0.0090    -1.5260 hn         1 43U       0.135700
     25 H7          -0.5710     0.0000     3.3330 ha         1 43U       0.126000
     26 H8           0.6200    -0.8840     4.8090 h1         1 43U      -0.001633
     27 H9           1.8980    -0.0000     5.6550 h1         1 43U      -0.001633
     28 H10          0.6220     0.8850     4.8080 h1         1 43U      -0.001633
     29 H2           5.0460    -0.0030    -3.1110 h5         1 43U       0.031800
@<TRIPOS>BOND
     1     1     2 ar  
     2     1    11 ar  
     3     1    13 1   
     4     2     3 ar  
     5     2    20 1   
     6     3     5 1   
     7     3    15 ar  
     8     4    12 1   
     9     4    19 2   
    10     4    29 1   
    11     5     6 ar  
    12     5    10 ar  
    13     6     7 ar  
    14     6    19 1   
    15     7    12 1   
    16     7    18 ar  
    17     8     9 1   
    18     8    10 ar  
    19     8    18 ar  
    20     9    21 1   
    21     9    22 1   
    22    11    14 ar  
    23    11    23 1   
    24    12    24 1   
    25    14    15 ar  
    26    14    25 1   
    27    15    16 1   
    28    16    17 1   
    29    17    26 1   
    30    17    27 1   
    31    17    28 1   
@<TRIPOS>SUBSTRUCTURE
     1 43U         1 TEMP              0 ****  ****    0 ROOT
