@<TRIPOS>MOLECULE
43V
   54    57     1     0     0
SMALL
bcc


@<TRIPOS>ATOM
      1 N1           0.0000     0.0000     0.0000 ns         1 43V      -0.057400
      2 C4           5.6220    -1.1950    -0.6510 ca         1 43V       0.007000
      3 C5           4.2630    -1.1950    -0.9040 ca         1 43V      -0.115500
      4 C6           3.5840     0.0020    -1.0290 ca         1 43V      -0.028300
      5 C7           2.1010     0.0020    -1.3040 c3         1 43V      -0.038100
      6 C8           1.3480     0.0000     0.0000 c          1 43V       0.539100
      7 C10         -2.4850     0.0010     2.5420 cc         1 43V       0.396800
      8 C13         -1.1780    -0.9040     5.8340 ca         1 43V      -0.089000
      9 C15         -2.3560     0.0010     7.7120 ca         1 43V      -0.095000
     10 C17         -2.7540     0.9010     5.5280 ca         1 43V      -0.089000
     11 C20         -5.8530    -0.9100     3.9390 ca         1 43V      -0.038600
     12 C21         -6.6680     0.0110     3.3020 ca         1 43V      -0.088000
     13 C22         -6.1270     0.9260     2.4170 ca         1 43V      -0.095000
     14 C24          4.2620     1.1990    -0.9010 ca         1 43V      -0.115500
     15 C1          10.3260     0.0100    -1.6770 c3         1 43V       0.038900
     16 C2           8.8040     0.0090    -1.8300 c3         1 43V       0.002400
     17 O1           8.2630    -1.2380     0.4660 o          1 43V      -0.585800
     18 O2           8.2620     1.2360     0.4770 o          1 43V      -0.585800
     19 C3           6.3000     0.0020    -0.5170 ca         1 43V      -0.153500
     20 C25          5.6210     1.1990    -0.6490 ca         1 43V       0.007000
     21 O3           1.9540     0.0000     1.0500 o          1 43V      -0.586100
     22 C9          -0.6940    -0.0010     1.2020 cd         1 43V       0.414300
     23 N2          -1.9860     0.0040     1.3170 nc         1 43V      -0.596000
     24 S2           0.0460    -0.0070     2.7990 ss         1 43V      -0.218300
     25 C11         -1.5510    -0.0010     3.5440 cd         1 43V      -0.057400
     26 C12         -1.8330    -0.0010     4.9920 ca         1 43V      -0.002000
     27 C16         -3.0050     0.9020     6.8850 ca         1 43V      -0.099500
     28 C14         -1.4450    -0.8990     7.1870 ca         1 43V      -0.099500
     29 C18         -3.9420     0.0060     2.8090 ca         1 43V      -0.106500
     30 C19         -4.4930    -0.9170     3.6970 ca         1 43V      -0.076000
     31 C23         -4.7700     0.9260     2.1630 ca         1 43V      -0.018600
     32 Cl2         -4.0920     2.0780     1.0570 cl         1 43V      -0.006400
     33 H1          -0.5000    -0.0060    -0.8670 hn         1 43V       0.177500
     34 H2           6.1540    -2.1340    -0.5540 ha         1 43V       0.123000
     35 H3           3.7310    -2.1330    -1.0090 ha         1 43V       0.109000
     36 H4           1.8400    -0.8820    -1.8730 hc         1 43V       0.036200
     37 H5           1.8390     0.8870    -1.8710 hc         1 43V       0.036200
     38 H6          -0.4640    -1.6080     5.4250 ha         1 43V       0.114500
     39 H7          -2.5590     0.0040     8.7760 ha         1 43V       0.103000
     40 H8          -3.2630     1.6050     4.8820 ha         1 43V       0.114500
     41 H9          -7.7340     0.0140     3.4970 ha         1 43V       0.116000
     42 H10         -6.7700     1.6420     1.9190 ha         1 43V       0.118000
     43 H11          3.7300     2.1370    -1.0020 ha         1 43V       0.109000
     44 H12         10.6350    -0.8760    -1.1360 hc         1 43V       0.012700
     45 H13         10.7870     0.0150    -2.6570 hc         1 43V       0.012700
     46 H14         10.6330     0.8930    -1.1290 hc         1 43V       0.012700
     47 H15          8.4960    -0.8730    -2.3780 h1         1 43V       0.061700
     48 H16          8.4950     0.8960    -2.3700 h1         1 43V       0.061700
     49 H17          6.1530     2.1370    -0.5460 ha         1 43V       0.123000
     50 H18         -3.7180     1.6030     7.3020 ha         1 43V       0.105000
     51 H19         -0.9400    -1.6000     7.8410 ha         1 43V       0.105000
     52 H20         -3.8570    -1.6370     4.1950 ha         1 43V       0.130000
     53 Cl1         -6.5420    -2.0540     5.0490 cl         1 43V      -0.021400
     54 S1           8.0310     0.0010    -0.1880 sy         1 43V       0.874300
@<TRIPOS>BOND
     1     1     6 1   
     2     1    22 1   
     3     1    33 1   
     4     2     3 ar  
     5     2    19 ar  
     6     2    34 1   
     7     3     4 ar  
     8     3    35 1   
     9     4     5 1   
    10     4    14 ar  
    11     5     6 1   
    12     5    36 1   
    13     5    37 1   
    14     6    21 2   
    15     7    23 1   
    16     7    25 2   
    17     7    29 1   
    18     8    26 ar  
    19     8    28 ar  
    20     8    38 1   
    21     9    27 ar  
    22     9    28 ar  
    23     9    39 1   
    24    10    26 ar  
    25    10    27 ar  
    26    10    40 1   
    27    11    12 ar  
    28    11    30 ar  
    29    11    53 1   
    30    12    13 ar  
    31    12    41 1   
    32    13    31 ar  
    33    13    42 1   
    34    14    20 ar  
    35    14    43 1   
    36    15    16 1   
    37    15    44 1   
    38    15    45 1   
    39    15    46 1   
    40    16    47 1   
    41    16    48 1   
    42    16    54 1   
    43    17    54 2   
    44    18    54 2   
    45    19    20 ar  
    46    19    54 1   
    47    20    49 1   
    48    22    23 2   
    49    22    24 1   
    50    24    25 1   
    51    25    26 1   
    52    27    50 1   
    53    28    51 1   
    54    29    30 ar  
    55    29    31 ar  
    56    30    52 1   
    57    31    32 1   
@<TRIPOS>SUBSTRUCTURE
     1 43V         1 TEMP              0 ****  ****    0 ROOT
