@<TRIPOS>MOLECULE
molecule
   54    57     1     0     0
SMALL
bcc


@<TRIPOS>ATOM
      1 N1           0.0000     0.0000     0.0000 ns         1 43V      -0.517400
      2 C4           5.6220    -1.1950    -0.6510 ca         1 43V      -0.026500
      3 C5           4.2630    -1.1950    -0.9040 ca         1 43V      -0.131500
      4 C6           3.5840     0.0020    -1.0290 ca         1 43V      -0.022300
      5 C7           2.1010     0.0020    -1.3040 c3         1 43V      -0.110100
      6 C8           1.3480     0.0000     0.0000 c          1 43V       0.654100
      7 C10         -2.4850     0.0010     2.5420 cc         1 43V       0.439800
      8 C13         -1.1780    -0.9040     5.8340 ca         1 43V      -0.111500
      9 C15         -2.3560     0.0010     7.7120 ca         1 43V      -0.122000
     10 C17         -2.7540     0.9010     5.5280 ca         1 43V      -0.111500
     11 C20         -5.8530    -0.9100     3.9390 ca         1 43V       0.023400
     12 C21         -6.6680     0.0110     3.3020 ca         1 43V      -0.112000
     13 C22         -6.1270     0.9260     2.4170 ca         1 43V      -0.122000
     14 C24          4.2620     1.1990    -0.9010 ca         1 43V      -0.131500
     15 C1          10.3260     0.0100    -1.6770 c3         1 43V      -0.074100
     16 C2           8.8040     0.0090    -1.8300 c3         1 43V      -0.207600
     17 O1           8.2630    -1.2380     0.4660 o          1 43V      -0.616300
     18 O2           8.2620     1.2360     0.4770 o          1 43V      -0.616300
     19 C3           6.3000     0.0020    -0.5170 ca         1 43V      -0.291500
     20 C25          5.6210     1.1990    -0.6490 ca         1 43V      -0.026500
     21 O3           1.9540     0.0000     1.0500 o          1 43V      -0.566100
     22 C9          -0.6940    -0.0010     1.2020 cc         1 43V       0.556300
     23 N2          -1.9860     0.0040     1.3170 nd         1 43V      -0.711000
     24 S2           0.0460    -0.0070     2.7990 ss         1 43V      -0.078300
     25 C11         -1.5510    -0.0010     3.5440 cd         1 43V      -0.126400
     26 C12         -1.8330    -0.0010     4.9920 ca         1 43V      -0.011000
     27 C16         -3.0050     0.9020     6.8850 ca         1 43V      -0.127500
     28 C14         -1.4450    -0.8990     7.1870 ca         1 43V      -0.127500
     29 C18         -3.9420     0.0060     2.8090 ca         1 43V      -0.098500
     30 C19         -4.4930    -0.9170     3.6970 ca         1 43V      -0.091000
     31 C23         -4.7700     0.9260     2.1630 ca         1 43V       0.049400
     32 Cl2         -4.0920     2.0780     1.0570 cl         1 43V      -0.086400
     33 H1          -0.5000    -0.0060    -0.8670 hn         1 43V       0.345500
     34 H2           6.1540    -2.1340    -0.5540 ha         1 43V       0.153000
     35 H3           3.7310    -2.1330    -1.0090 ha         1 43V       0.137500
     36 H4           1.8400    -0.8820    -1.8730 hc         1 43V       0.076200
     37 H5           1.8390     0.8870    -1.8710 hc         1 43V       0.076200
     38 H6          -0.4640    -1.6080     5.4250 ha         1 43V       0.138000
     39 H7          -2.5590     0.0040     8.7760 ha         1 43V       0.131000
     40 H8          -3.2630     1.6050     4.8820 ha         1 43V       0.138000
     41 H9          -7.7340     0.0140     3.4970 ha         1 43V       0.149000
     42 H10         -6.7700     1.6420     1.9190 ha         1 43V       0.150000
     43 H11          3.7300     2.1370    -1.0020 ha         1 43V       0.137500
     44 H12         10.6350    -0.8760    -1.1360 hc         1 43V       0.052033
     45 H13         10.7870     0.0150    -2.6570 hc         1 43V       0.052033
     46 H14         10.6330     0.8930    -1.1290 hc         1 43V       0.052033
     47 H15          8.4960    -0.8730    -2.3780 h1         1 43V       0.096700
     48 H16          8.4950     0.8960    -2.3700 h1         1 43V       0.096700
     49 H17          6.1530     2.1370    -0.5460 ha         1 43V       0.153000
     50 H18         -3.7180     1.6030     7.3020 ha         1 43V       0.133000
     51 H19         -0.9400    -1.6000     7.8410 ha         1 43V       0.133000
     52 H20         -3.8570    -1.6370     4.1950 ha         1 43V       0.161000
     53 Cl1         -6.5420    -2.0540     5.0490 cl         1 43V      -0.101400
     54 S1           8.0310     0.0010    -0.1880 sy         1 43V       1.193300
@<TRIPOS>BOND
     1     5     6 1   
     2     5     4 1   
     3    21     6 2   
     4    14     4 ar  
     5    14    20 ar  
     6     6     1 1   
     7     4     3 ar  
     8     1    22 1   
     9    20    19 ar  
    10    24    22 1   
    11    24    25 1   
    12    22    23 2   
    13     3     2 ar  
    14    10    27 ar  
    15    10    26 ar  
    16    19     2 ar  
    17    19    54 1   
    18    27     9 ar  
    19    23     7 1   
    20    25    26 1   
    21    25     7 2   
    22    17    54 2   
    23    32    31 1   
    24    26     8 ar  
    25     7    29 1   
    26    54    16 1   
    27    54    18 2   
    28     9    28 ar  
    29    16    15 1   
    30    29    31 ar  
    31    29    30 ar  
    32    31    13 ar  
    33     8    28 ar  
    34    30    11 ar  
    35    13    12 ar  
    36    11    12 ar  
    37    11    53 1   
    38     1    33 1   
    39     2    34 1   
    40     3    35 1   
    41     5    36 1   
    42     5    37 1   
    43     8    38 1   
    44     9    39 1   
    45    10    40 1   
    46    12    41 1   
    47    13    42 1   
    48    14    43 1   
    49    15    44 1   
    50    15    45 1   
    51    15    46 1   
    52    16    47 1   
    53    16    48 1   
    54    20    49 1   
    55    27    50 1   
    56    28    51 1   
    57    30    52 1   
@<TRIPOS>SUBSTRUCTURE
     1 43V         1 TEMP              0 ****  ****    0 ROOT
