@<TRIPOS>MOLECULE
43W
   18    17     1     0     0
SMALL
bcc


@<TRIPOS>ATOM
      1 O6          0.1900    1.2520   -0.1250 o         1 43W     -0.958167
      2 P           1.2930    0.2320   -0.0460 p5        1 43W      1.459900
      3 O           1.7530   -0.0900    1.3490 o         1 43W     -0.958167
      4 O5          1.0960   -0.9650   -0.9350 o         1 43W     -0.958167
      5 O1          2.7170    1.0700   -0.7440 os        1 43W     -0.799800
      6 P1          3.9790    1.7930   -1.2740 p5        1 43W      1.576800
      7 O4          4.2590    3.1530   -0.7200 o         1 43W     -0.932000
      8 O3          5.1790    0.9460   -1.5360 o         1 43W     -0.932000
      9 O2          3.5300    2.2470   -2.8830 os        1 43W     -0.555200
     10 C           4.4670    3.0040   -3.5280 c3        1 43W      0.267400
     11 C1          4.0280    4.4920   -3.5700 c3        1 43W     -0.119300
     12 C2          4.7770    5.2850   -4.4940 c1        1 43W      0.000900
     13 C3          5.3930    5.9640   -5.2700 c1        1 43W     -0.365500
     14 H4          5.4710    2.9360   -3.0220 h1        1 43W     -0.015300
     15 H5          4.5690    2.6500   -4.5980 h1        1 43W     -0.015300
     16 H6          2.9370    4.5250   -3.8360 hc        1 43W      0.092200
     17 H7          4.1340    4.8940   -2.5200 hc        1 43W      0.092200
     18 H8          5.9480    6.5480   -5.9480 ha        1 43W      0.120500
@<TRIPOS>BOND
     1    1    2 1   
     2    2    3 1   
     3    2    4 1   
     4    2    5 1   
     5    5    6 1   
     6    6    7 1   
     7    6    8 1   
     8    6    9 1   
     9    9   10 1   
    10   10   11 1   
    11   10   14 1   
    12   10   15 1   
    13   11   12 1   
    14   11   16 1   
    15   11   17 1   
    16   12   13 3   
    17   13   18 1   
@<TRIPOS>SUBSTRUCTURE
     1 43W         1 TEMP              0 ****  ****    0 ROOT
