@<TRIPOS>MOLECULE
molecule
   18    17     1     0     0
SMALL
bcc


@<TRIPOS>ATOM
      1 O6           0.0000     0.0000     0.0000 o          1 43W      -0.947167
      2 P            1.6100     0.0000     0.0000 p5         1 43W       1.294900
      3 O            2.1470     0.0000     1.5180 o          1 43W      -0.947167
      4 O5           2.1030    -1.2090    -0.6980 o          1 43W      -0.947167
      5 O1           2.1470     1.3150    -0.7590 os         1 43W      -0.709800
      6 P1           3.5450     1.7150    -1.4480 p5         1 43W       1.411800
      7 O4           4.6320     2.0410    -0.3060 o          1 43W      -0.859000
      8 O3           4.0270     0.5900    -2.2790 o          1 43W      -0.859000
      9 O2           3.3340     3.0150    -2.3750 os         1 43W      -0.596200
     10 C            4.3660     3.5560    -3.2030 c3         1 43W       0.233400
     11 C1           3.8320     4.7820    -3.9450 c3         1 43W      -0.134300
     12 C2           4.8940     5.3410    -4.7990 c1         1 43W      -0.002100
     13 C3           5.7260     5.7950    -5.4910 c1         1 43W      -0.356500
     14 H4           4.4920     2.9300    -4.0780 h1         1 43W       0.032200
     15 H5           5.2950     3.5900    -2.6460 h1         1 43W       0.032200
     16 H6           2.8560     5.0440    -3.5550 hc         1 43W       0.107200
     17 H7           4.5120     5.6140    -3.8050 hc         1 43W       0.107200
     18 H8           6.5070     6.2110    -6.1160 ha         1 43W       0.137500
@<TRIPOS>BOND
     1     8     6 1
     2     7     6 1
     3     6     5 1
     4     6     9 1
     5     4     2 1
     6     5     2 1
     7     9    10 1
     8     2     1 1
     9     2     3 1
    10    10    11 1
    11    11    12 1
    12    12    13 3
    13    10    14 1
    14    10    15 1
    15    11    16 1
    16    11    17 1
    17    13    18 1
@<TRIPOS>SUBSTRUCTURE
     1 43W         1 TEMP              0 ****  ****    0 ROOT
