@<TRIPOS>MOLECULE
molecule
   30    31     1     0     0
SMALL
bcc


@<TRIPOS>ATOM
      1 O2           0.0000     0.0000     0.0000 o          1 43X      -0.645500
      2 C2           1.2200     0.0000     0.0000 c          1 43X       0.839900
      3 N3           1.8750     0.0000     1.1590 nc         1 43X      -0.729100
      4 C4           3.2010    -0.0000     1.1890 cd         1 43X       0.370500
      5 N4           3.8660    -0.0010     2.3940 nz         1 43X      -0.693600
      6 C5           3.9270    -0.0010    -0.0220 cd         1 43X      -0.096100
      7 F5           5.2780    -0.0010    -0.0130 f          1 43X      -0.173500
      8 C6           3.2460    -0.0010    -1.1940 cc         1 43X       0.039600
      9 N1           1.8820    -0.0060    -1.1730 n          1 43X      -0.329000
     10 C1'          1.1330    -0.0130    -2.4310 c3         1 43X       0.304500
     11 O4'          2.0430    -0.0520    -3.5390 os         1 43X      -0.430600
     12 C2'          0.2420    -1.2860    -2.5090 c3         1 43X      -0.002300
     13 S3'         -0.0630    -1.3580    -4.3220 ss         1 43X      -0.348200
     14 C4'          1.3750    -0.3180    -4.7860 c3         1 43X       0.233200
     15 C5'          2.3000    -1.0800    -5.7370 c3         1 43X       0.250400
     16 O5'          2.6790    -2.3220    -5.1400 os         1 43X      -0.533200
     17 PA           3.6510    -3.3820    -5.8630 p5         1 43X       1.186900
     18 O3A          3.7550    -4.7140    -4.9630 o          1 43X      -0.727500
     19 O2A          5.1160    -2.7350    -6.0360 o          1 43X      -0.727500
     20 H1           3.2020    -0.0030     3.1420 hn         1 43X       0.439467
     21 H2           4.4400     0.8170     2.4590 hn         1 43X       0.439467
     22 H3           3.7740    -0.1570    -2.1270 h4         1 43X       0.229000
     23 H4           0.5120     0.8730    -2.5000 h2         1 43X       0.073700
     24 H5          -0.4310    -0.4550    -2.3350 h1         1 43X       0.100200
     25 H6           0.2940    -2.1110    -1.8090 h1         1 43X       0.100200
     26 H7           1.0390     0.6080    -5.2370 h2         1 43X       0.051700
     27 H8           1.8890    -0.6380    -6.6370 h1         1 43X       0.032200
     28 H9           3.2440    -0.5520    -5.6740 h1         1 43X       0.032200
     29 OP3          3.1040    -3.7260    -7.1940 o          1 43X      -0.727500
     30 H43          4.4420    -0.8180     2.4560 hn         1 43X       0.439467
@<TRIPOS>BOND
     1     1     2 2   
     2     2     3 1   
     3     2     9 1   
     4     3     4 2   
     5    10     9 1   
     6    10    11 1   
     7    10    12 1   
     8     9     8 1   
     9    11    14 1   
    10    12    13 1   
    11     4     5 1   
    12     4     6 1   
    13     8     6 2   
    14     6     7 1   
    15    14    13 1   
    16    14    15 1   
    17    15    16 1   
    18    16    17 1   
    19    17    18 1   
    20    17    19 1   
    21     5    20 1   
    22     5    21 1   
    23     8    22 1   
    24    10    23 1   
    25    12    24 1   
    26    12    25 1   
    27    14    26 1   
    28    15    27 1   
    29    15    28 1   
    30    17    29 1   
    31    30     5 1   
@<TRIPOS>SUBSTRUCTURE
     1 43X         1 TEMP              0 ****  ****    0 ROOT
