@<TRIPOS>MOLECULE
43Y
   52    51     1     0     0
SMALL
bcc


@<TRIPOS>ATOM
      1 C11          0.0000     0.0000     0.0000 c          1 43Y       0.690100
      2 O11          1.2080     0.0000     0.0000 o          1 43Y      -0.592000
      3 O3          -0.6730     0.0000     1.1620 os         1 43Y      -0.401900
      4 C3           0.1180    -0.0000     2.3800 c3         1 43Y       0.200400
      5 C2          -0.8150    -0.0000     3.5920 c3         1 43Y       0.148100
      6 C1           0.0130     0.1260     4.8730 c3         1 43Y       0.317400
      7 O3P         -0.8620     0.2420     5.9970 os         1 43Y      -0.510200
      8 P           -0.3310     0.3930     7.5100 p5         1 43Y       0.920800
      9 O1P          0.5820    -0.7280     7.8250 o          1 43Y      -0.633500
     10 O2P          0.4560     1.7880     7.6650 o          1 43Y      -0.633500
     11 O4P         -1.5830     0.3670     8.5220 os         1 43Y      -0.525200
     12 C4          -1.4340     0.3770     9.9430 c3         1 43Y       0.290400
     13 C5          -2.8150     0.3460    10.6000 c3         1 43Y      -0.039200
     14 N           -3.4650    -0.9410    10.3170 n4         1 43Y       0.063200
     15 C7          -2.5810    -2.0380    10.7350 c3         1 43Y       0.011433
     16 C8          -4.7310    -1.0240    11.0560 c3         1 43Y       0.011433
     17 C6          -3.7310    -1.0480     8.8770 c3         1 43Y       0.011433
     18 O2          -1.5680    -1.2420     3.6240 os         1 43Y      -0.395900
     19 C31         -2.7440    -1.2570     2.9760 c          1 43Y       0.688100
     20 O31         -3.1310    -0.2670     2.4020 o          1 43Y      -0.585000
     21 C32         -3.5810    -2.5100     2.9640 c3         1 43Y      -0.069400
     22 C33         -4.8610    -2.2610     2.1630 c3         1 43Y       0.016900
     23 H2           0.7430     0.8840     2.4050 h1         1 43Y       0.021700
     24 H3           0.7420    -0.8850     2.4050 h1         1 43Y       0.021700
     25 H4          -1.4990     0.8360     3.5210 h1         1 43Y       0.050700
     26 H5           0.6410     1.0070     4.8120 h1         1 43Y       0.001200
     27 H6           0.6350    -0.7530     4.9890 h1         1 43Y       0.001200
     28 H8          -0.9100     1.2750    10.2450 h1         1 43Y       0.020200
     29 H9          -0.8670    -0.4930    10.2530 h1         1 43Y       0.020200
     30 H10         -3.4220     1.1510    10.2040 hx         1 43Y       0.066200
     31 H11         -2.7080     0.4680    11.6710 hx         1 43Y       0.066200
     32 H12         -2.1070    -1.7810    11.6740 hx         1 43Y       0.070033
     33 H13         -3.1640    -2.9430    10.8600 hx         1 43Y       0.070033
     34 H14         -1.8220    -2.1990     9.9790 hx         1 43Y       0.070033
     35 H15         -4.5320    -0.9790    12.1200 hx         1 43Y       0.070033
     36 H16         -5.3690    -0.1950    10.7730 hx         1 43Y       0.070033
     37 H17         -5.2270    -1.9580    10.8200 hx         1 43Y       0.070033
     38 H18         -4.5790    -1.7030     8.7140 hx         1 43Y       0.070033
     39 H19         -3.9510    -0.0660     8.4760 hx         1 43Y       0.070033
     40 H20         -2.8600    -1.4550     8.3780 hx         1 43Y       0.070033
     41 H21         -3.0190    -3.3150     2.5070 hc         1 43Y       0.026700
     42 H22         -3.8380    -2.7820     3.9810 hc         1 43Y       0.026700
     43 H23         -5.4700    -3.1560     2.1690 hc         1 43Y       0.007367
     44 H24         -4.6030    -2.0050     1.1420 hc         1 43Y       0.007367
     45 H25         -5.4140    -1.4440     2.6110 hc         1 43Y       0.007367
     46 C9          -0.7530     0.0050    -1.3060 c3         1 43Y      -0.069400
     47 C10          0.2420     0.0120    -2.4690 c3         1 43Y       0.015900
     48 H1          -1.3770     0.8900    -1.3590 hc         1 43Y       0.032700
     49 H26         -1.3750    -0.8790    -1.3680 hc         1 43Y       0.032700
     50 H27          0.8660    -0.8720    -2.4150 hc         1 43Y       0.008700
     51 H28         -0.2990     0.0170    -3.4070 hc         1 43Y       0.008700
     52 H29          0.8640     0.8970    -2.4060 hc         1 43Y       0.008700
@<TRIPOS>BOND
     1     1     2 2   
     2     1     3 1   
     3     1    46 1   
     4     3     4 1   
     5     4     5 1   
     6     4    23 1   
     7     4    24 1   
     8     5     6 1   
     9     5    18 1   
    10     5    25 1   
    11     6     7 1   
    12     6    26 1   
    13     6    27 1   
    14     7     8 1   
    15     8     9 1   
    16     8    10 1   
    17     8    11 1   
    18    11    12 1   
    19    12    13 1   
    20    12    28 1   
    21    12    29 1   
    22    13    14 1   
    23    13    30 1   
    24    13    31 1   
    25    14    15 1   
    26    14    16 1   
    27    14    17 1   
    28    15    32 1   
    29    15    33 1   
    30    15    34 1   
    31    16    35 1   
    32    16    36 1   
    33    16    37 1   
    34    17    38 1   
    35    17    39 1   
    36    17    40 1   
    37    18    19 1   
    38    19    20 2   
    39    19    21 1   
    40    21    22 1   
    41    21    41 1   
    42    21    42 1   
    43    22    43 1   
    44    22    44 1   
    45    22    45 1   
    46    46    47 1   
    47    46    48 1   
    48    46    49 1   
    49    47    50 1   
    50    47    51 1   
    51    47    52 1   
@<TRIPOS>SUBSTRUCTURE
     1 43Y         1 TEMP              0 ****  ****    0 ROOT
