@<TRIPOS>MOLECULE
molecule
   52    51     1     0     0
SMALL
bcc


@<TRIPOS>ATOM
      1 C11          0.0000     0.0000     0.0000 c          1 43Y       0.630100
      2 O11          1.2080     0.0000     0.0000 o          1 43Y      -0.554000
      3 O3          -0.6730     0.0000     1.1620 os         1 43Y      -0.417900
      4 C3           0.1180    -0.0000     2.3800 c3         1 43Y       0.126400
      5 C2          -0.8150    -0.0000     3.5920 c3         1 43Y       0.138100
      6 C1           0.0130     0.1260     4.8730 c3         1 43Y       0.233400
      7 O3P         -0.8620     0.2420     5.9970 os         1 43Y      -0.606200
      8 P           -0.3310     0.3930     7.5100 p5         1 43Y       1.330800
      9 O1P          0.5820    -0.7280     7.8250 o          1 43Y      -0.792500
     10 O2P          0.4560     1.7880     7.6650 o          1 43Y      -0.792500
     11 O4P         -1.5830     0.3670     8.5220 os         1 43Y      -0.612200
     12 C4          -1.4340     0.3770     9.9430 c3         1 43Y       0.202400
     13 C5          -2.8150     0.3460    10.6000 c3         1 43Y       0.093800
     14 N           -3.4650    -0.9410    10.3170 n4         1 43Y      -0.568800
     15 C7          -2.5810    -2.0380    10.7350 c3         1 43Y       0.098100
     16 C8          -4.7310    -1.0240    11.0560 c3         1 43Y       0.098100
     17 C6          -3.7310    -1.0480     8.8770 c3         1 43Y       0.098100
     18 O2          -1.5680    -1.2420     3.6240 os         1 43Y      -0.415900
     19 C31         -2.7440    -1.2570     2.9760 c          1 43Y       0.629100
     20 O31         -3.1310    -0.2670     2.4020 o          1 43Y      -0.542000
     21 C32         -3.5810    -2.5100     2.9640 c3         1 43Y      -0.128400
     22 C33         -4.8610    -2.2610     2.1630 c3         1 43Y      -0.082100
     23 H2           0.7430     0.8840     2.4050 h1         1 43Y       0.063200
     24 H3           0.7420    -0.8850     2.4050 h1         1 43Y       0.063200
     25 H4          -1.4990     0.8360     3.5210 h1         1 43Y       0.089700
     26 H5           0.6410     1.0070     4.8120 h1         1 43Y       0.054700
     27 H6           0.6350    -0.7530     4.9890 h1         1 43Y       0.054700
     28 H8          -0.9100     1.2750    10.2450 h1         1 43Y       0.070700
     29 H9          -0.8670    -0.4930    10.2530 h1         1 43Y       0.070700
     30 H10         -3.4220     1.1510    10.2040 hx         1 43Y       0.094200
     31 H11         -2.7080     0.4680    11.6710 hx         1 43Y       0.094200
     32 H12         -2.1070    -1.7810    11.6740 hx         1 43Y       0.095256
     33 H13         -3.1640    -2.9430    10.8600 hx         1 43Y       0.095256
     34 H14         -1.8220    -2.1990     9.9790 hx         1 43Y       0.095256
     35 H15         -4.5320    -0.9790    12.1200 hx         1 43Y       0.095256
     36 H16         -5.3690    -0.1950    10.7730 hx         1 43Y       0.095256
     37 H17         -5.2270    -1.9580    10.8200 hx         1 43Y       0.095256
     38 H18         -4.5790    -1.7030     8.7140 hx         1 43Y       0.095256
     39 H19         -3.9510    -0.0660     8.4760 hx         1 43Y       0.095256
     40 H20         -2.8600    -1.4550     8.3780 hx         1 43Y       0.095256
     41 H21         -3.0190    -3.3150     2.5070 hc         1 43Y       0.063700
     42 H22         -3.8380    -2.7820     3.9810 hc         1 43Y       0.063700
     43 H23         -5.4700    -3.1560     2.1690 hc         1 43Y       0.043700
     44 H24         -4.6030    -2.0050     1.1420 hc         1 43Y       0.043700
     45 H25         -5.4140    -1.4440     2.6110 hc         1 43Y       0.043700
     46 C9          -0.7530     0.0050    -1.3060 c3         1 43Y      -0.127400
     47 C10          0.2420     0.0120    -2.4690 c3         1 43Y      -0.083100
     48 H1          -1.3770     0.8900    -1.3590 hc         1 43Y       0.070200
     49 H26         -1.3750    -0.8790    -1.3680 hc         1 43Y       0.070200
     50 H27          0.8660    -0.8720    -2.4150 hc         1 43Y       0.044700
     51 H28         -0.2990     0.0170    -3.4070 hc         1 43Y       0.044700
     52 H29          0.8640     0.8970    -2.4060 hc         1 43Y       0.044700
@<TRIPOS>BOND
     1    17    14 1
     2    16    14 1
     3     9     8 1
     4    14    15 1
     5    14    13 1
     6    10     8 1
     7    11     8 1
     8    11    12 1
     9     8     7 1
    10    12    13 1
    11     7     6 1
    12     6     5 1
    13    18     5 1
    14    18    19 1
    15     5     4 1
    16     4     3 1
    17    21    19 1
    18    21    22 1
    19    19    20 2
    20     3     1 1
    21     1     2 2
    22     4    23 1
    23     4    24 1
    24     5    25 1
    25     6    26 1
    26     6    27 1
    27    12    28 1
    28    12    29 1
    29    13    30 1
    30    13    31 1
    31    15    32 1
    32    15    33 1
    33    15    34 1
    34    16    35 1
    35    16    36 1
    36    16    37 1
    37    17    38 1
    38    17    39 1
    39    17    40 1
    40    21    41 1
    41    21    42 1
    42    22    43 1
    43    22    44 1
    44    22    45 1
    45     1    46 1
    46    46    47 1
    47    46    48 1
    48    46    49 1
    49    47    50 1
    50    47    51 1
    51    47    52 1
@<TRIPOS>SUBSTRUCTURE
     1 43Y         1 TEMP              0 ****  ****    0 ROOT
