@<TRIPOS>MOLECULE
molecule
   34    35     1     0     0
SMALL
bcc


@<TRIPOS>ATOM
      1 Cl           0.0000     0.0000     0.0000 cl         1 43Z      -0.077400
      2 CAP          1.7360     0.0000     0.0000 ca         1 43Z      -0.008600
      3 CAN          2.4300     0.0000     1.2000 ca         1 43Z       0.140900
      4 FAD          1.7560     0.0010     2.3700 f          1 43Z      -0.124900
      5 CAG          3.8140     0.0000     1.1970 ca         1 43Z      -0.154000
      6 CAF          4.5030    -0.0010    -0.0010 ca         1 43Z      -0.104000
      7 CAH          3.8100    -0.0020    -1.1980 ca         1 43Z      -0.119000
      8 CAO          2.4270    -0.0070    -1.1980 ca         1 43Z      -0.085300
      9 CAI          1.6750    -0.0140    -2.5020 c3         1 43Z       0.159300
     10 NAL          1.2230     1.3440    -2.8130 ns         1 43Z      -0.583900
     11 CAM          0.5230     1.5800    -3.9410 c          1 43Z       0.669100
     12 OAA          0.2670     0.6690    -4.6980 o          1 43Z      -0.602100
     13 CAS          0.0580     2.9770    -4.2600 c3         1 43Z      -0.150700
     14 CAJ         -0.7170     2.9970    -5.5940 c3         1 43Z      -0.091400
     15 CAQ         -0.3330     4.3060    -6.3060 c3         1 43Z       0.139100
     16 OAB          0.2860     4.0170    -7.5610 oh         1 43Z      -0.574800
     17 CAR          0.6610     5.0370    -5.3800 c3         1 43Z       0.139100
     18 OAC          1.6770     5.6840    -6.1490 oh         1 43Z      -0.574800
     19 CAK          1.2710     3.9080    -4.5120 c3         1 43Z      -0.091400
     20 H1           4.3570     0.0010     2.1350 ha         1 43Z       0.154000
     21 H2           5.5860     0.0010    -0.0020 ha         1 43Z       0.144000
     22 H3           4.3510    -0.0050    -2.1360 ha         1 43Z       0.148000
     23 H4           0.8160    -0.6700    -2.4200 h1         1 43Z       0.067700
     24 H5           2.3250    -0.3680    -3.2930 h1         1 43Z       0.067700
     25 H6           1.4070     2.0920    -2.1730 hn         1 43Z       0.317500
     26 H7          -0.5590     3.3700    -3.4610 hc         1 43Z       0.064700
     27 H8          -0.4280     2.1470    -6.2010 hc         1 43Z       0.068200
     28 H9          -1.7830     2.9780    -5.4020 hc         1 43Z       0.068200
     29 H10         -1.2160     4.9170    -6.4540 h1         1 43Z       0.033200
     30 H11         -0.3110     4.2250    -8.2610 ho         1 43Z       0.396000
     31 H12          0.1380     5.7510    -4.7550 h1         1 43Z       0.033200
     32 H13          1.7990     6.5630    -5.8320 ho         1 43Z       0.396000
     33 H14          2.0470     3.3840    -5.0570 hc         1 43Z       0.068200
     34 H15          1.6480     4.3050    -3.5780 hc         1 43Z       0.068200
@<TRIPOS>BOND
     1     4     3 1
     2     3     5 ar
     3     3     2 ar
     4     1     2 1
     5     5     6 ar
     6     2     8 ar
     7     6     7 ar
     8     8     7 ar
     9     8     9 1
    10     9    10 1
    11    10    11 1
    12    11    12 2
    13    11    13 1
    14    19    13 1
    15    19    17 1
    16    18    17 1
    17    13    14 1
    18    17    15 1
    19    14    15 1
    20    16    15 1
    21     5    20 1
    22     6    21 1
    23     7    22 1
    24     9    23 1
    25     9    24 1
    26    10    25 1
    27    13    26 1
    28    14    27 1
    29    14    28 1
    30    15    29 1
    31    16    30 1
    32    17    31 1
    33    18    32 1
    34    19    33 1
    35    19    34 1
@<TRIPOS>SUBSTRUCTURE
     1 43Z         1 TEMP              0 ****  ****    0 ROOT
