@<TRIPOS>MOLECULE
440
   34    34     1     0     0
SMALL
bcc


@<TRIPOS>ATOM
      1 C           0.1570    0.0960   -0.1830 ca        1 440     -0.212000
      2 C1          1.5430    0.1130   -0.0840 ca        1 440      0.019000
      3 C2          1.4020    0.0080    2.3180 ca        1 440      0.019000
      4 C3          0.0200   -0.0110    2.2540 ca        1 440     -0.212000
      5 C4         -0.6100    0.0300    0.9900 ca        1 440      0.198100
      6 O          -1.9800   -0.0010    1.0340 os        1 440     -0.312900
      7 C5         -2.6530    0.0760   -0.2430 c3        1 440      0.221500
      8 C6         -6.6520    0.0090    0.4330 c3        1 440     -0.029000
      9 C7         -5.2440    0.0310    0.2110 c1        1 440     -0.073100
     10 C8         -4.0640    0.0500    0.0140 c1        1 440     -0.172100
     11 C9          2.1910    0.0610    1.1560 ca        1 440     -0.439500
     12 O1          4.3940    0.6800    0.0950 o         1 440     -0.656300
     13 O2          4.2530    0.6420    2.4920 o         1 440     -0.656300
     14 S           3.8530    0.1090    1.2580 sy        1 440      1.394300
     15 C10         4.1810   -1.5760    1.2470 c3        1 440     -0.308600
     16 C11         5.6680   -1.8530    1.2870 c3        1 440     -0.059400
     17 C12         5.9520   -3.3290    1.2030 c3        1 440      0.007700
     18 S1          7.6690   -3.7190    1.3400 sh        1 440     -0.367900
     19 H'         -0.3180    0.1400   -1.1730 ha        1 440      0.154500
     20 H1          2.1520    0.1830   -1.0040 ha        1 440      0.157500
     21 H2          1.9020   -0.0030    3.3040 ha        1 440      0.157500
     22 H3         -0.5980   -0.0520    3.1630 ha        1 440      0.154500
     23 H51        -2.3580    1.0340   -0.7540 h1        1 440      0.062200
     24 H52        -2.3460   -0.8080   -0.8700 h1        1 440      0.062200
     25 H61        -7.2020   -0.0690   -0.5420 hc        1 440      0.062033
     26 H62        -6.9350   -0.8690    1.0700 hc        1 440      0.062033
     27 H63        -6.9830    0.9460    0.9530 hc        1 440      0.062033
     28 H101        3.6980   -2.0880    2.1200 h1        1 440      0.108200
     29 H102        3.7480   -2.0650    0.3350 h1        1 440      0.108200
     30 H111        6.1640   -1.3210    0.4290 hc        1 440      0.069200
     31 H112        6.0980   -1.4380    2.2400 hc        1 440      0.069200
     32 H121        5.4720   -3.8690    2.0580 h1        1 440      0.073700
     33 H122        5.5340   -3.7470    0.2550 h1        1 440      0.073700
     34 H1A         8.1370   -3.0260    0.3170 hs        1 440      0.201800
@<TRIPOS>BOND
     1    1    2 ar  
     2    1    5 ar  
     3    1   19 1   
     4    2   11 ar  
     5    2   20 1   
     6    3    4 ar  
     7    3   11 ar  
     8    3   21 1   
     9    4    5 ar  
    10    4   22 1   
    11    5    6 1   
    12    6    7 1   
    13    7   10 1   
    14    7   23 1   
    15    7   24 1   
    16    8    9 1   
    17    8   25 1   
    18    8   26 1   
    19    8   27 1   
    20    9   10 3   
    21   11   14 1   
    22   12   14 2   
    23   13   14 2   
    24   14   15 1   
    25   15   16 1   
    26   15   28 1   
    27   15   29 1   
    28   16   17 1   
    29   16   30 1   
    30   16   31 1   
    31   17   18 1   
    32   17   32 1   
    33   17   33 1   
    34   18   34 1   
@<TRIPOS>SUBSTRUCTURE
     1 440         1 TEMP              0 ****  ****    0 ROOT
