@<TRIPOS>MOLECULE
molecule
   34    34     1     0     0
SMALL
bcc


@<TRIPOS>ATOM
      1 C            0.0000     0.0000     0.0000 ca         1 440      -0.224500
      2 C1           1.3820     0.0000     0.0000 ca         1 440      -0.005000
      3 C2           1.3860     0.0020     2.3960 ca         1 440      -0.005000
      4 C3           0.0060     0.0080     2.4010 ca         1 440      -0.224500
      5 C4          -0.6930     0.0070     1.2020 ca         1 440       0.243100
      6 O           -2.0510     0.0130     1.2050 os         1 440      -0.293900
      7 C5          -2.7030     0.0100    -0.0670 c3         1 440      -0.146500
      8 C6          -6.9800     0.1680     0.6730 c3         1 440       0.032000
      9 C7          -5.3270     0.0420     0.2760 c1         1 440      -0.108100
     10 C8          -4.1620     0.0180     0.1290 c1         1 440      -0.116100
     11 C9           2.0740     0.0000     1.1960 ca         1 440      -0.347500
     12 O1           4.1870     0.5980    -0.0450 o          1 440      -0.619300
     13 O2           4.1920     0.5930     2.4300 o          1 440      -0.619300
     14 S            3.8360    -0.0080     1.1920 sy         1 440       1.181300
     15 C10          4.2810    -1.7670     1.1880 c3         1 440      -0.196600
     16 C11          5.8040    -1.9070     1.1840 c3         1 440      -0.027400
     17 C12          6.1790    -3.3910     1.1820 c3         1 440      -0.058300
     18 S1           7.9850    -3.5580     1.1770 sh         1 440      -0.379900
     19 H'          -0.5050     0.2000    -0.9370 ha         1 440       0.154000
     20 H1           1.9940     0.1260    -0.8850 ha         1 440       0.154500
     21 H2           1.7650    -0.0330     3.4100 ha         1 440       0.154500
     22 H3          -0.2080     0.0080     3.4630 ha         1 440       0.154000
     23 H51         -2.2040    -0.5240    -0.8660 h1         1 440       0.191200
     24 H52         -3.7800    -0.1000    -0.0280 h1         1 440       0.191200
     25 H61         -7.6920     0.4510    -0.0930 hc         1 440       0.061367
     26 H62         -7.2660    -0.8770     0.6430 hc         1 440       0.061367
     27 H63         -7.0570     0.6400     1.6450 hc         1 440       0.061367
     28 H101         3.4890    -2.1840     0.5770 h1         1 440       0.084700
     29 H102         3.8450    -2.0610     2.1350 h1         1 440       0.084700
     30 H111         6.2570    -1.3800     0.3540 hc         1 440       0.095200
     31 H112         6.1270    -1.8860     2.2180 hc         1 440       0.095200
     32 H121         6.6780    -3.6830     0.2660 h1         1 440       0.082700
     33 H122         5.3040    -4.0180     1.3100 h1         1 440       0.082700
     34 H1A          7.9670    -4.8050     0.7210 hs         1 440       0.206800
@<TRIPOS>BOND
     1    13    14 2   
     2     8     9 1   
     3    12    14 2   
     4    14    11 1   
     5    14    15 1   
     6     3     4 ar  
     7     3    11 ar  
     8     4     5 ar  
     9    11     2 ar  
    10     9    10 3   
    11    17    18 1   
    12    17    16 1   
    13    15    16 1   
    14    10     7 1   
    15     5     6 1   
    16     5     1 ar  
    17     2     1 ar  
    18     6     7 1   
    19     1    19 1   
    20     2    20 1   
    21     3    21 1   
    22     4    22 1   
    23     7    23 1   
    24     7    24 1   
    25     8    25 1   
    26     8    26 1   
    27     8    27 1   
    28    15    28 1   
    29    15    29 1   
    30    16    30 1   
    31    16    31 1   
    32    17    32 1   
    33    17    33 1   
    34    18    34 1   
@<TRIPOS>SUBSTRUCTURE
     1 440         1 TEMP              0 ****  ****    0 ROOT
