@<TRIPOS>MOLECULE
molecule
   54    56     1     0     0
SMALL
bcc


@<TRIPOS>ATOM
      1 O3           0.0000     0.0000     0.0000 oh         1 442      -0.615300
      2 C8           1.4280     0.0000     0.0000 c3         1 442       0.344900
      3 O2           1.9050     0.0000     1.3470 oh         1 442      -0.615300
      4 C7           1.9400    -1.2470    -0.7220 c3         1 442      -0.023100
      5 C5           3.4470    -1.2450    -0.7220 ca         1 442      -0.085300
      6 C6           4.1350    -0.6510    -1.7620 ca         1 442      -0.075000
      7 C4           4.1380    -1.8450     0.3150 ca         1 442      -0.075000
      8 C3           5.5200    -1.8460     0.3180 ca         1 442      -0.036400
      9 Br2          6.4640    -2.6650     1.7360 br         1 442      -0.057600
     10 C2           6.2150    -1.2440    -0.7230 ca         1 442       0.131100
     11 C1           5.5180    -0.6440    -1.7620 ca         1 442      -0.036400
     12 Br1          6.4600     0.1770    -3.1820 br         1 442      -0.057600
     13 O4           7.5730    -1.2430    -0.7230 os         1 442      -0.199200
     14 C11          7.9670    -2.3680    -1.3740 ca         1 442       0.081100
     15 C12          9.3160    -2.6390    -1.5390 ca         1 442      -0.073000
     16 C13          9.7170    -3.7860    -2.1960 ca         1 442      -0.081300
     17 C14          8.7670    -4.6620    -2.7010 ca         1 442       0.105100
     18 C15          7.4170    -4.3890    -2.5420 ca         1 442      -0.171000
     19 C16          7.0180    -3.2450    -1.8810 ca         1 442      -0.168000
     20 O            9.1610    -5.7880    -3.3530 oh         1 442      -0.515100
     21 C17         11.1830    -4.0820    -2.3700 c3         1 442       0.410600
     22 O1          11.6460    -3.5020    -3.5910 oh         1 442      -0.629800
     23 N28         11.9340    -3.5150    -1.2430 n7         1 442      -0.796200
     24 C29         13.1090    -4.3730    -1.0420 c3         1 442       0.145800
     25 C30         13.9410    -3.8360     0.1240 c3         1 442      -0.036100
     26 C31         15.1450    -4.7180     0.3300 ca         1 442      -0.085300
     27 C36         15.0730    -5.7990     1.1890 ca         1 442      -0.124000
     28 C35         16.1770    -6.6090     1.3740 ca         1 442      -0.127000
     29 C32         16.3250    -4.4430    -0.3350 ca         1 442      -0.124000
     30 C33         17.4300    -5.2510    -0.1470 ca         1 442      -0.127000
     31 C34         17.3560    -6.3360     0.7080 ca         1 442      -0.131000
     32 HO3         -0.3140     0.8740    -0.1620 ho         1 442       0.407500
     33 H8           1.7890     0.8850    -0.5100 h2         1 442       0.021700
     34 HO2          1.5690     0.7560     1.8000 ho         1 442       0.407500
     35 H71          1.5790    -1.2470    -1.7430 hc         1 442       0.073200
     36 H72          1.5800    -2.1330    -0.2120 hc         1 442       0.073200
     37 H6           3.5910    -0.1830    -2.5740 ha         1 442       0.156500
     38 H4           3.5960    -2.3250     1.1200 ha         1 442       0.156500
     39 H12         10.0580    -1.9550    -1.1450 ha         1 442       0.161000
     40 H15          6.6760    -5.0730    -2.9370 ha         1 442       0.135000
     41 H16          5.9630    -3.0320    -1.7560 ha         1 442       0.147000
     42 HO           8.5350    -5.9970    -4.0260 ho         1 442       0.423000
     43 H17         11.3340    -5.1550    -2.4010 h2         1 442       0.064700
     44 HO1         11.7850    -4.1820    -4.2290 ho         1 442       0.411000
     45 H28         12.2340    -2.5890    -1.4740 hn         1 442       0.367800
     46 H291        13.7100    -4.3790    -1.9420 h1         1 442       0.040200
     47 H292        12.7840    -5.3830    -0.8180 h1         1 442       0.040200
     48 H301        14.2660    -2.8270    -0.1000 hc         1 442       0.056700
     49 H302        13.3390    -3.8310     1.0240 hc         1 442       0.056700
     50 H36         14.1490    -6.0140     1.7120 ha         1 442       0.131500
     51 H35         16.1190    -7.4570     2.0460 ha         1 442       0.129000
     52 H32         16.3830    -3.5940    -1.0050 ha         1 442       0.131500
     53 H33         18.3540    -5.0350    -0.6700 ha         1 442       0.129000
     54 H34         18.2210    -6.9710     0.8550 ha         1 442       0.128000
@<TRIPOS>BOND
     1     1     2 1
     2     1    32 1
     3     2     3 1
     4     2     4 1
     5     2    33 1
     6     3    34 1
     7     4     5 1
     8     4    35 1
     9     4    36 1
    10     5     6 ar
    11     5     7 ar
    12     6    11 ar
    13     6    37 1
    14     7     8 ar
    15     7    38 1
    16     8     9 1
    17     8    10 ar
    18    10    11 ar
    19    10    13 1
    20    11    12 1
    21    13    14 1
    22    14    15 ar
    23    14    19 ar
    24    15    16 ar
    25    15    39 1
    26    16    17 ar
    27    16    21 1
    28    17    18 ar
    29    17    20 1
    30    18    19 ar
    31    18    40 1
    32    19    41 1
    33    20    42 1
    34    21    22 1
    35    21    23 1
    36    21    43 1
    37    22    44 1
    38    23    24 1
    39    23    45 1
    40    24    25 1
    41    24    46 1
    42    24    47 1
    43    25    26 1
    44    25    48 1
    45    25    49 1
    46    26    27 ar
    47    26    29 ar
    48    27    28 ar
    49    27    50 1
    50    28    31 ar
    51    28    51 1
    52    29    30 ar
    53    29    52 1
    54    30    31 ar
    55    30    53 1
    56    31    54 1
@<TRIPOS>SUBSTRUCTURE
     1 442         1 TEMP              0 ****  ****    0 ROOT
