@<TRIPOS>MOLECULE
443
   58    61     1     0     0
SMALL
bcc


@<TRIPOS>ATOM
      1 C4           0.0000     0.0000     0.0000 c3         1 443      -0.032600
      2 C8          -2.3600     1.4090     0.6580 ca         1 443      -0.155500
      3 C10         -4.3990     0.7180     1.7130 ca         1 443      -0.111000
      4 C13         -7.1900     1.4960    -0.5630 ca         1 443      -0.014600
      5 C15         -6.5070     2.0740    -1.6330 ca         1 443      -0.109000
      6 C17         -4.4290     1.7560    -0.4910 ca         1 443      -0.078000
      7 C22          2.2770    -2.5880    -2.7330 c3         1 443       0.049500
      8 C24          2.2400    -1.2060    -4.8130 c3         1 443       0.061700
      9 C26          1.0410    -0.3820    -2.7820 c3         1 443       0.049500
     10 C28          2.4830    -1.1250    -7.3280 c3         1 443       0.047000
     11 O1           2.0070     0.0000     1.3480 oh         1 443      -0.545800
     12 C2           1.5310     0.0000     0.0000 c3         1 443       0.151100
     13 S5          -0.6050     1.5490     0.7230 sy         1 443       0.878300
     14 O6          -0.3100     1.6010     2.1120 o          1 443      -0.578300
     15 O7          -0.3100     2.6460    -0.1300 o          1 443      -0.578300
     16 C9          -3.0440     0.8410     1.7320 ca         1 443      -0.015000
     17 C11         -5.1230     1.1690     0.5960 ca         1 443       0.009000
     18 C12         -6.5210     1.0480     0.5370 ca         1 443      -0.100000
     19 Cl14        -8.9180     1.3460    -0.6340 cl         1 443      -0.022400
     20 C16         -5.1530     2.2070    -1.6080 ca         1 443      -0.058000
     21 C18         -3.0280     1.8620    -0.4380 ca         1 443       0.038000
     22 C19          2.0330    -1.2300    -0.7100 c          1 443       0.556100
     23 O20          2.6540    -2.0740    -0.0980 o          1 443      -0.617100
     24 N21          1.7930    -1.3930    -2.0260 n          1 443      -0.154800
     25 C23          3.0890    -2.1430    -3.9530 c3         1 443      -0.083400
     26 C25          1.8690     0.0380    -4.0010 c3         1 443      -0.083400
     27 N27          3.0030    -0.8040    -5.9970 n          1 443      -0.165800
     28 C29          3.6560    -1.2950    -8.2980 c3         1 443      -0.066400
     29 C30          4.5100    -0.0230    -8.2600 c3         1 443       0.034000
     30 N31          4.9200     0.2380    -6.8780 ns         1 443      -0.221900
     31 C32          4.1640    -0.1510    -5.8410 c          1 443       0.640500
     32 O33          4.5450     0.1000    -4.7140 o          1 443      -0.754500
     33 H4          -0.3610    -0.8370     0.5860 h1         1 443       0.084200
     34 H4A         -0.3610    -0.0890    -1.0170 h1         1 443       0.084200
     35 H10         -4.9170     0.2750     2.5550 ha         1 443       0.114000
     36 H15         -7.0620     2.4220    -2.4950 ha         1 443       0.116000
     37 H22          1.4320    -3.1840    -3.0570 h1         1 443       0.029200
     38 H22A         2.9060    -3.1710    -2.0710 h1         1 443       0.029200
     39 H24          1.3360    -1.7190    -5.1170 h1         1 443       0.026700
     40 H26          0.0990    -0.8030    -3.1120 h1         1 443       0.029200
     41 H26A         0.8600     0.4800    -2.1530 h1         1 443       0.029200
     42 H28          1.9160    -2.0470    -7.2820 h1         1 443       0.018200
     43 H28A         1.8460    -0.3180    -7.6700 h1         1 443       0.018200
     44 HO1          2.8200     0.4750     1.3940 ho         1 443       0.403000
     45 H2           1.8920     0.8840    -0.5110 h1         1 443       0.026700
     46 H9          -2.4890     0.4960     2.5960 ha         1 443       0.128000
     47 H12         -7.0650     0.6010     1.3600 ha         1 443       0.122000
     48 H16         -4.6350     2.6580    -2.4460 ha         1 443       0.110000
     49 H18         -2.4770     2.2010    -1.3070 ha         1 443       0.120000
     50 H23          3.9790    -1.6210    -3.6220 hc         1 443       0.050450
     51 H23A         3.3690    -3.0120    -4.5360 hc         1 443       0.050450
     52 H25          1.2860     0.7110    -4.6180 hc         1 443       0.050450
     53 H25A         2.7730     0.5350    -3.6690 hc         1 443       0.050450
     54 H29          4.2740    -2.0860    -7.8900 hc         1 443       0.041700
     55 H29A         3.2240    -1.3390    -9.2910 hc         1 443       0.041700
     56 H30          3.8510     0.7900    -8.5370 h1         1 443       0.029200
     57 H30A         5.4180    -0.2540    -8.8040 h1         1 443       0.029200
     58 HN31         5.7820     0.7160    -6.7050 hn         1 443       0.198500
@<TRIPOS>BOND
     1     1    12 1   
     2     1    13 1   
     3     1    33 1   
     4     1    34 1   
     5     2    13 1   
     6     2    16 ar  
     7     2    21 ar  
     8     3    16 ar  
     9     3    17 ar  
    10     3    35 1   
    11     4     5 ar  
    12     4    18 ar  
    13     4    19 1   
    14     5    20 ar  
    15     5    36 1   
    16     6    17 ar  
    17     6    20 ar  
    18     6    21 ar  
    19     7    24 1   
    20     7    25 1   
    21     7    37 1   
    22     7    38 1   
    23     8    25 1   
    24     8    26 1   
    25     8    27 1   
    26     8    39 1   
    27     9    24 1   
    28     9    26 1   
    29     9    40 1   
    30     9    41 1   
    31    10    27 1   
    32    10    28 1   
    33    10    42 1   
    34    10    43 1   
    35    11    12 1   
    36    11    44 1   
    37    12    22 1   
    38    12    45 1   
    39    13    14 2   
    40    13    15 2   
    41    16    46 1   
    42    17    18 ar  
    43    18    47 1   
    44    20    48 1   
    45    21    49 1   
    46    22    23 2   
    47    22    24 1   
    48    25    50 1   
    49    25    51 1   
    50    26    52 1   
    51    26    53 1   
    52    27    31 1   
    53    28    29 1   
    54    28    54 1   
    55    28    55 1   
    56    29    30 1   
    57    29    56 1   
    58    29    57 1   
    59    30    31 1   
    60    30    58 1   
    61    31    32 2   
@<TRIPOS>SUBSTRUCTURE
     1 443         1 TEMP              0 ****  ****    0 ROOT
