@<TRIPOS>MOLECULE
445
   41    42     1     0     0
SMALL
bcc


@<TRIPOS>ATOM
      1 C10          0.0000     0.0000     0.0000 ca         1 445      -0.112000
      2 C11          1.3810     0.0000     0.0000 ca         1 445      -0.084000
      3 C12          2.0740     0.0000     1.1970 ca         1 445      -0.111000
      4 C13          1.3870     0.0000     2.3970 ca         1 445      -0.084000
      5 C14          0.0070    -0.0000     2.4040 ca         1 445      -0.112000
      6 C9          -0.6930     0.0010     1.2050 ca         1 445      -0.102400
      7 N2          -2.0900     0.0010     1.2090 ns         1 445       0.013900
      8 C8          -2.7670    -0.6400     0.2350 c          1 445       0.491100
      9 O8          -2.1660    -1.2970    -0.5900 o          1 445      -0.642100
     10 C7          -4.2560    -0.5420     0.1720 c          1 445       0.512100
     11 O7          -4.8570     0.1150     0.9960 o          1 445      -0.641100
     12 N1          -4.9330    -1.1820    -0.8020 ns         1 445      -0.127900
     13 C1          -6.3940    -1.0860    -0.8640 c3         1 445       0.214500
     14 O5          -6.9740    -2.2070    -0.1940 os         1 445      -0.397600
     15 C5          -8.4030    -2.1990    -0.1730 c3         1 445       0.174100
     16 C6          -8.9090    -3.4230     0.5910 c3         1 445       0.225400
     17 O6          -8.5100    -3.3300     1.9590 oh         1 445      -0.578800
     18 C4          -8.9320    -2.2370    -1.6090 c3         1 445       0.138100
     19 O4         -10.3600    -2.1700    -1.5920 oh         1 445      -0.580800
     20 C3          -8.3740    -1.0400    -2.3840 c3         1 445       0.149100
     21 O3          -8.8040    -1.1070    -3.7440 oh         1 445      -0.588800
     22 C2          -6.8430    -1.0790    -2.3280 c3         1 445       0.131100
     23 O2          -6.3110     0.0710    -2.9860 oh         1 445      -0.576800
     24 H10         -0.5420     0.0000    -0.9380 ha         1 445       0.121500
     25 H11          1.9220    -0.0000    -0.9390 ha         1 445       0.103500
     26 H12          3.1570     0.0000     1.1940 ha         1 445       0.103000
     27 H13          1.9330    -0.0000     3.3320 ha         1 445       0.103500
     28 H14         -0.5300    -0.0000     3.3450 ha         1 445       0.121500
     29 HN2         -2.5880     0.4990     1.9200 hn         1 445       0.188500
     30 HN1         -4.4410    -1.7460    -1.4660 hn         1 445       0.191500
     31 H1          -6.7210    -0.1720    -0.3840 h2         1 445       0.061700
     32 H5          -8.7500    -1.2950     0.3140 h1         1 445       0.035700
     33 H6          -9.9900    -3.4650     0.5320 h1         1 445      -0.003300
     34 H6A         -8.4890    -4.3210     0.1530 h1         1 445      -0.003300
     35 HO6         -8.9190    -4.0210     2.4540 ho         1 445       0.388000
     36 H4          -8.6140    -3.1560    -2.0860 h1         1 445       0.021700
     37 HO4        -10.7110    -2.7790    -2.2220 ho         1 445       0.400000
     38 H3          -8.7270    -0.1210    -1.9320 h1         1 445       0.029700
     39 HO3         -9.3290    -0.3500    -3.9460 ho         1 445       0.403000
     40 H2          -6.4880    -1.9780    -2.8170 h1         1 445       0.021700
     41 HO2         -5.9700    -0.1780    -3.8290 ho         1 445       0.401000
@<TRIPOS>BOND
     1     1     2 ar  
     2     1     6 ar  
     3     1    24 1   
     4     2     3 ar  
     5     2    25 1   
     6     3     4 ar  
     7     3    26 1   
     8     4     5 ar  
     9     4    27 1   
    10     5     6 ar  
    11     5    28 1   
    12     6     7 1   
    13     7     8 1   
    14     7    29 1   
    15     8     9 2   
    16     8    10 1   
    17    10    11 2   
    18    10    12 1   
    19    12    13 1   
    20    12    30 1   
    21    13    14 1   
    22    13    22 1   
    23    13    31 1   
    24    14    15 1   
    25    15    16 1   
    26    15    18 1   
    27    15    32 1   
    28    16    17 1   
    29    16    33 1   
    30    16    34 1   
    31    17    35 1   
    32    18    19 1   
    33    18    20 1   
    34    18    36 1   
    35    19    37 1   
    36    20    21 1   
    37    20    22 1   
    38    20    38 1   
    39    21    39 1   
    40    22    23 1   
    41    22    40 1   
    42    23    41 1   
@<TRIPOS>SUBSTRUCTURE
     1 445         1 TEMP              0 ****  ****    0 ROOT
