@<TRIPOS>MOLECULE
446
   59    62     1     0     0
SMALL
bcc


@<TRIPOS>ATOM
      1 C4           0.0000     0.0000     0.0000 ca         1 446      -0.145600
      2 C5           1.3940     0.0000     0.0000 ca         1 446      -0.022000
      3 C6           2.0760     0.0000     1.1980 ca         1 446      -0.105000
      4 C10         -2.1700     0.0040     1.1960 cc         1 446      -0.001400
      5 N12         -2.1150     0.0010    -1.2120 n          1 446       0.102000
      6 C13         -0.7700     0.0010    -1.2520 c          1 446       0.616100
      7 C15         -2.9460     0.0080     2.4550 ca         1 446      -0.044800
      8 C28         -3.7530     1.1000     2.7770 ca         1 446      -0.062000
      9 C1           1.3870    -0.0030     2.4050 ca         1 446       0.060100
     10 C2           0.0080    -0.0040     2.4280 ca         1 446      -0.091000
     11 C3          -0.6990     0.0040     1.2270 ca         1 446      -0.004800
     12 C11         -2.8150    -0.0010    -0.0240 cd         1 446      -0.163600
     13 Br14         2.3520    -0.0030     4.0320 br         1 446      -0.137100
     14 C16         -2.8620     0.0010    -2.4730 c3         1 446       0.027300
     15 O18         -4.9310    -0.1350    -1.2330 os         1 446      -0.393900
     16 C19         -6.3830    -0.1280    -1.1900 c3         1 446       0.246700
     17 O23         -4.9160     0.1170     0.9750 o          1 446      -0.560000
     18 O24         -0.1920     0.0030    -2.3230 o          1 446      -0.672500
     19 C25         -3.1230     1.4220    -2.9010 ca         1 446      -0.164300
     20 C29         -4.4750     1.0980     3.9530 ca         1 446      -0.109000
     21 C30         -4.3990     0.0170     4.8130 ca         1 446      -0.095000
     22 C31         -3.6000    -1.0690     4.5000 ca         1 446      -0.109000
     23 C32         -2.8790    -1.0830     3.3240 ca         1 446      -0.062000
     24 C38         -2.2780     2.0360    -3.8080 ca         1 446      -0.084000
     25 C39         -2.5150     3.3380    -4.2030 ca         1 446      -0.142000
     26 C40         -3.6030     4.0320    -3.6870 ca         1 446      -0.050400
     27 C41         -4.4480     3.4130    -2.7760 ca         1 446      -0.142000
     28 C42         -4.2090     2.1090    -2.3900 ca         1 446      -0.084000
     29 N47         -3.8450     5.3510    -4.0840 ns         1 446      -0.057100
     30 C48         -3.4130     5.7830    -5.2850 c          1 446       0.556100
     31 C49         -3.5560     7.2360    -5.6600 c3         1 446      -0.081400
     32 C50         -2.9920     7.4590    -7.0650 c3         1 446      -0.121400
     33 C53         -3.1330     8.9120    -7.4380 c          1 446       0.978600
     34 O56         -2.9120     5.0020    -6.0670 o          1 446      -0.634100
     35 O57         -3.6340     9.6900    -6.6600 o          1 446      -0.904800
     36 O58         -2.7040     9.3430    -8.6350 o          1 446      -0.904800
     37 H5           1.9380     0.0020    -0.9360 ha         1 446       0.132000
     38 H6           3.1590     0.0010     1.1990 ha         1 446       0.119000
     39 H28         -3.8130     1.9480     2.1050 ha         1 446       0.107000
     40 H2          -0.5220    -0.0060     3.3720 ha         1 446       0.135000
     41 H16         -2.2820    -0.5050    -3.2360 h1         1 446       0.070700
     42 H16A        -3.8050    -0.5140    -2.3350 h1         1 446       0.070700
     43 H19         -6.7740    -0.1390    -2.2010 h1         1 446       0.007700
     44 H19A        -6.7250     0.7650    -0.6810 h1         1 446       0.007700
     45 H19B        -6.7330    -1.0040    -0.6580 h1         1 446       0.007700
     46 H29         -5.1010     1.9460     4.2040 ha         1 446       0.100500
     47 H30         -4.9650     0.0210     5.7370 ha         1 446       0.097000
     48 H31         -3.5470    -1.9140     5.1760 ha         1 446       0.100500
     49 H32         -2.2550    -1.9340     3.0800 ha         1 446       0.107000
     50 H38         -1.4300     1.4940    -4.2100 ha         1 446       0.121000
     51 H39         -1.8530     3.8180    -4.9140 ha         1 446       0.133000
     52 H41         -5.2980     3.9500    -2.3740 ha         1 446       0.133000
     53 H42         -4.8690     1.6250    -1.6790 ha         1 446       0.121000
     54 HN47        -4.3310     5.9760    -3.4720 hn         1 446       0.170500
     55 H49         -4.6030     7.5120    -5.6430 hc         1 446       0.037700
     56 H49A        -3.0100     7.8470    -4.9500 hc         1 446       0.037700
     57 H50         -1.9450     7.1820    -7.0820 hc         1 446       0.020200
     58 H50A        -3.5390     6.8490    -7.7740 hc         1 446       0.020200
     59 C17         -4.2840    -0.0020    -0.0580 c          1 446       0.706300
@<TRIPOS>BOND
     1     1     2 ar  
     2     1     6 1   
     3     1    11 ar  
     4     2     3 ar  
     5     2    37 1   
     6     3     9 ar  
     7     3    38 1   
     8     4     7 1   
     9     4    11 1   
    10     4    12 2   
    11     5     6 1   
    12     5    12 1   
    13     5    14 1   
    14     6    18 2   
    15     7     8 ar  
    16     7    23 ar  
    17     8    20 ar  
    18     8    39 1   
    19     9    10 ar  
    20     9    13 1   
    21    10    11 ar  
    22    10    40 1   
    23    12    59 1   
    24    14    19 1   
    25    14    41 1   
    26    14    42 1   
    27    15    16 1   
    28    15    59 1   
    29    16    43 1   
    30    16    44 1   
    31    16    45 1   
    32    17    59 2   
    33    19    24 ar  
    34    19    28 ar  
    35    20    21 ar  
    36    20    46 1   
    37    21    22 ar  
    38    21    47 1   
    39    22    23 ar  
    40    22    48 1   
    41    23    49 1   
    42    24    25 ar  
    43    24    50 1   
    44    25    26 ar  
    45    25    51 1   
    46    26    27 ar  
    47    26    29 1   
    48    27    28 ar  
    49    27    52 1   
    50    28    53 1   
    51    29    30 1   
    52    29    54 1   
    53    30    31 1   
    54    30    34 2   
    55    31    32 1   
    56    31    55 1   
    57    31    56 1   
    58    32    33 1   
    59    32    57 1   
    60    32    58 1   
    61    33    35 1   
    62    33    36 1   
@<TRIPOS>SUBSTRUCTURE
     1 446         1 TEMP              0 ****  ****    0 ROOT
