@<TRIPOS>MOLECULE
molecule
   69    73     1     0     0
SMALL
bcc


@<TRIPOS>ATOM
      1 CAT          0.0000     0.0000     0.0000 c3         1 447       0.134800
      2 CAQ          1.5430     0.0000     0.0000 c3         1 447       0.136900
      3 OBA          2.0520     0.0000     1.3810 os         1 447      -0.407600
      4 CAR          1.5820    -1.1420     2.1760 c3         1 447       0.136900
      5 CAU          0.0510    -1.2890     2.0570 c3         1 447       0.134800
      6 NBL         -0.5070    -0.0920     1.3890 n3         1 447      -0.719600
      7 CAS         -1.9790     0.0240     1.5250 c3         1 447       0.168800
      8 CAO         -2.8570    -0.9000     0.6680 c3         1 447      -0.118400
      9 CAP         -4.3190    -0.7680     1.1340 c3         1 447       0.141400
     10 OBB         -4.6200    -1.8360     2.0600 os         1 447      -0.335900
     11 CBH         -5.9240    -2.0540     2.4350 ca         1 447       0.138100
     12 CAM         -6.9700    -1.1630     2.1720 ca         1 447      -0.265300
     13 CBG         -6.1950    -3.2540     3.1240 ca         1 447       0.079100
     14 OAZ         -5.1620    -4.1190     3.4020 os         1 447      -0.338900
     15 CAA         -4.4430    -4.6440     2.2830 c3         1 447       0.138700
     16 CAN         -7.4890    -3.5500     3.5510 ca         1 447      -0.086000
     17 C5          -8.5380    -2.6640     3.2860 ca         1 447      -0.334600
     18 C4          -8.2700    -1.4710     2.5940 ca         1 447       0.492600
     19 N3          -9.2640    -0.6060     2.3330 nb         1 447      -0.773000
     20 C2         -10.5730    -0.8810     2.7440 ca         1 447       0.710900
     21 N1         -10.8460    -2.0760     3.4300 nb         1 447      -0.805000
     22 C6          -9.8530    -2.9440     3.6960 ca         1 447       0.737200
     23 NAY        -10.0640    -4.1060     4.3690 nu         1 447      -0.738300
     24 CBE        -11.2790    -4.3860     4.9130 ca         1 447       0.112600
     25 CAK        -11.8120    -5.6690     4.7740 ca         1 447      -0.114000
     26 CAI        -13.0540    -5.9930     5.3280 ca         1 447      -0.152000
     27 CAJ        -12.0100    -3.4390     5.6370 ca         1 447      -0.114000
     28 CAH        -13.2500    -3.7580     6.1950 ca         1 447      -0.152000
     29 CBD        -13.7800    -5.0400     6.0570 ca         1 447       0.048600
     30 NAX        -14.9990    -5.2950     6.5930 ns         1 447      -0.456100
     31 CBC        -15.4030    -6.5540     6.8860 c          1 447       0.684700
     32 OAB        -14.7250    -7.5720     6.7190 o          1 447      -0.596100
     33 CBF        -16.6960    -6.6430     7.4100 ca         1 447      -0.170600
     34 CAF        -17.1710    -7.8640     7.8930 ca         1 447      -0.079000
     35 CAD        -18.4610    -7.9580     8.4090 ca         1 447      -0.140500
     36 CAC        -19.2840    -6.8330     8.4430 ca         1 447      -0.096000
     37 CAE        -18.8110    -5.6130     7.9690 ca         1 447      -0.140500
     38 CAG        -17.5240    -5.5210     7.4460 ca         1 447      -0.079000
     39 HAT1        -0.3580    -0.8500    -0.5690 h1         1 447       0.037200
     40 HAT2        -0.3580     0.9180    -0.4510 h1         1 447       0.037200
     41 HAQ1         1.9010     0.8850    -0.5120 h1         1 447       0.047950
     42 HAQ2         1.9010    -0.8850    -0.5120 h1         1 447       0.047950
     43 HAR1         1.8450    -0.9850     3.2160 h1         1 447       0.047950
     44 HAR2         2.0560    -2.0470     1.8150 h1         1 447       0.047950
     45 HAU1        -0.1810    -2.1700     1.4700 h1         1 447       0.037200
     46 HAU2        -0.3800    -1.3830     3.0460 h1         1 447       0.037200
     47 HAS1        -2.2280    -0.1560     2.5640 h1         1 447       0.057200
     48 HAS2        -2.2510     1.0460     1.2910 h1         1 447       0.057200
     49 HAO1        -2.5280    -1.9260     0.7870 hc         1 447       0.058200
     50 HAO2        -2.7800    -0.6120    -0.3730 hc         1 447       0.058200
     51 HAP1        -4.9790    -0.8350     0.2770 h1         1 447       0.044700
     52 HAP2        -4.4580     0.1870     1.6250 h1         1 447       0.044700
     53 HAM         -6.7620    -0.2030     1.7140 ha         1 447       0.158000
     54 HAN         -7.6840    -4.4750     4.0790 ha         1 447       0.138000
     55 HAA1        -4.4180    -5.7260     2.3460 h1         1 447       0.037033
     56 HAA2        -3.4310    -4.2580     2.2900 h1         1 447       0.037033
     57 HAA3        -4.9370    -4.3480     1.3650 h1         1 447       0.037033
     58 H2         -11.3720    -0.1810     2.5280 h5         1 447       0.069100
     59 HAY         -9.3160    -4.7640     4.4640 hn         1 447       0.463800
     60 HAK        -11.2650    -6.4180     4.2140 ha         1 447       0.140000
     61 HAJ        -11.6150    -2.4370     5.7550 ha         1 447       0.140000
     62 HAI        -13.4500    -6.9950     5.2100 ha         1 447       0.150500
     63 HAH        -13.7970    -3.0080     6.7530 ha         1 447       0.150500
     64 HAX        -15.6180    -4.5300     6.7770 hn         1 447       0.335500
     65 HAF        -16.5340    -8.7400     7.8680 ha         1 447       0.142000
     66 HAG        -17.1590    -4.5700     7.0780 ha         1 447       0.142000
     67 HAD        -18.8270    -8.9070     8.7790 ha         1 447       0.137500
     68 HAC        -20.2870    -6.9070     8.8470 ha         1 447       0.136000
     69 HAE        -19.4490    -4.7380     7.9940 ha         1 447       0.137500
@<TRIPOS>BOND
     1     1     2 1   
     2     1     6 1   
     3     2     3 1   
     4     3     4 1   
     5     4     5 1   
     6     5     6 1   
     7     6     7 1   
     8     7     8 1   
     9     8     9 1   
    10     9    10 1   
    11    10    11 1   
    12    11    12 ar  
    13    11    13 ar  
    14    12    18 ar  
    15    13    14 1   
    16    13    16 ar  
    17    14    15 1   
    18    16    17 ar  
    19    17    18 ar  
    20    17    22 ar  
    21    18    19 ar  
    22    19    20 ar  
    23    20    21 ar  
    24    21    22 ar  
    25    22    23 1   
    26    23    24 1   
    27    24    25 ar  
    28    24    27 ar  
    29    25    26 ar  
    30    26    29 ar  
    31    27    28 ar  
    32    28    29 ar  
    33    29    30 1   
    34    30    31 1   
    35    31    32 2   
    36    31    33 1   
    37    33    34 ar  
    38    33    38 ar  
    39    34    35 ar  
    40    35    36 ar  
    41    36    37 ar  
    42    37    38 ar  
    43     1    39 1   
    44     1    40 1   
    45     2    41 1   
    46     2    42 1   
    47     4    43 1   
    48     4    44 1   
    49     5    45 1   
    50     5    46 1   
    51     7    47 1   
    52     7    48 1   
    53     8    49 1   
    54     8    50 1   
    55     9    51 1   
    56     9    52 1   
    57    12    53 1   
    58    16    54 1   
    59    15    55 1   
    60    15    56 1   
    61    15    57 1   
    62    20    58 1   
    63    23    59 1   
    64    25    60 1   
    65    27    61 1   
    66    26    62 1   
    67    28    63 1   
    68    30    64 1   
    69    34    65 1   
    70    38    66 1   
    71    35    67 1   
    72    36    68 1   
    73    37    69 1   
@<TRIPOS>SUBSTRUCTURE
     1 447         1 TEMP              0 ****  ****    0 ROOT
