@<TRIPOS>MOLECULE
molecule
   47    49     1     0     0
SMALL
bcc


@<TRIPOS>ATOM
      1 F9           0.0000     0.0000     0.0000 f          1 448      -0.087900
      2 C6           1.3510     0.0000     0.0000 ca         1 448       0.161900
      3 C1           2.0440     0.0000     1.1990 ca         1 448      -0.167000
      4 C2           3.4280     0.0010     1.1970 ca         1 448       0.165900
      5 F10          4.1040     0.0000     2.3670 f          1 448      -0.117900
      6 C5           2.0450    -0.0060    -1.2010 ca         1 448       0.104900
      7 F8           1.3700    -0.0100    -2.3710 f          1 448      -0.099900
      8 C4           3.4290    -0.0050    -1.1990 ca         1 448      -0.149000
      9 C3           4.1190    -0.0000    -0.0030 ca         1 448      -0.187300
     10 C11          5.6260     0.0000    -0.0030 c3         1 448      -0.048100
     11 C12          6.1360    -1.4370     0.1230 c3         1 448       0.128500
     12 N20          5.7470    -2.2010    -1.0700 nz         1 448      -0.805600
     13 C15          7.6610    -1.4280     0.2490 c3         1 448      -0.196400
     14 C16          8.1540    -2.8300     0.4960 c          1 448       0.658100
     15 O22          7.3630    -3.7470     0.5650 o          1 448      -0.630100
     16 N19          9.4720    -3.0660     0.6390 n          1 448      -0.478800
     17 C25         10.4600    -1.9930     0.4410 c3         1 448       0.068000
     18 C26         11.1950    -1.7360     1.7620 c3         1 448       0.055300
     19 C29          9.9690    -4.4050     1.0080 c3         1 448       0.105400
     20 C34          8.8290    -5.2430     1.5900 c3         1 448      -0.090100
     21 C28         11.0480    -4.2080     2.0470 cc         1 448       0.429800
     22 N27         11.5770    -3.0160     2.3570 na         1 448      -0.059400
     23 N39         12.5380    -3.2540     3.3450 nc         1 448      -0.470800
     24 N41         11.6230    -5.1100     2.7880 nd         1 448      -0.702000
     25 C40         12.5310    -4.5440     3.5720 cd         1 448       0.501300
     26 C41         13.4060    -5.2630     4.5670 c3         1 448       0.636600
     27 F29         14.4200    -5.9460     3.8860 f          1 448      -0.198967
     28 F27         13.9750    -4.3340     5.4440 f          1 448      -0.198967
     29 F28         12.6330    -6.1770     5.2920 f          1 448      -0.198967
     30 H1           1.5030    -0.0180     2.1370 ha         1 448       0.193000
     31 H4           3.9710    -0.0080    -2.1370 ha         1 448       0.146000
     32 H111         5.9880     0.5860     0.8330 hc         1 448       0.093700
     33 H112         5.9870     0.4320    -0.9290 hc         1 448       0.093700
     34 H12          5.7040    -1.8980     1.0030 hx         1 448       0.140700
     35 H201         5.7020    -1.5870    -1.8590 hn         1 448       0.458800
     36 H202         6.4250    -2.9170    -1.2430 hn         1 448       0.458800
     37 H151         8.0970    -1.0480    -0.6670 hc         1 448       0.100700
     38 H152         7.9510    -0.7920     1.0770 hc         1 448       0.100700
     39 H251        11.1850    -2.3310    -0.2890 h1         1 448       0.077700
     40 H252         9.9280    -1.0900     0.1680 h1         1 448       0.077700
     41 H261        12.0990    -1.1810     1.5440 h1         1 448       0.086700
     42 H262        10.5100    -1.2390     2.4390 h1         1 448       0.086700
     43 H29         10.3850    -4.8950     0.1360 h1         1 448       0.094700
     44 H341         9.2370    -6.1270     2.0660 hc         1 448       0.068367
     45 H342         8.1560    -5.5390     0.7950 hc         1 448       0.068367
     46 H343         8.2880    -4.6560     2.3230 hc         1 448       0.068367
     47 H203         4.8450    -2.6090    -0.9260 hn         1 448       0.458800
@<TRIPOS>BOND
     1     1     2 1   
     2     2     6 ar  
     3     2     3 ar  
     4     3     4 ar  
     5     3    30 1   
     6     4     9 ar  
     7     4     5 1   
     8     6     7 1   
     9     6     8 ar  
    10     8     9 ar  
    11     8    31 1   
    12     9    10 1   
    13    10    11 1   
    14    10    32 1   
    15    10    33 1   
    16    11    12 1   
    17    11    13 1   
    18    11    34 1   
    19    12    35 1   
    20    12    36 1   
    21    13    14 1   
    22    13    37 1   
    23    13    38 1   
    24    14    15 2   
    25    14    16 1   
    26    16    17 1   
    27    16    19 1   
    28    17    18 1   
    29    17    39 1   
    30    17    40 1   
    31    18    22 1   
    32    18    41 1   
    33    18    42 1   
    34    19    21 1   
    35    19    20 1   
    36    19    43 1   
    37    20    44 1   
    38    20    45 1   
    39    20    46 1   
    40    21    22 1   
    41    21    24 2   
    42    22    23 1   
    43    23    25 2   
    44    24    25 1   
    45    25    26 1   
    46    26    28 1   
    47    26    29 1   
    48    26    27 1   
    49    47    12 1   
@<TRIPOS>SUBSTRUCTURE
     1 448         1 TEMP              0 ****  ****    0 ROOT
