@<TRIPOS>MOLECULE
molecule
   26    26     1     0     0
SMALL
bcc


@<TRIPOS>ATOM
      1 CAA          0.0000     0.0000     0.0000 c3         1 449      -0.082400
      2 CAB          1.5300     0.0000     0.0000 c3         1 449       0.097800
      3 CAC          1.6020    -1.2310     2.0620 c3         1 449       0.097800
      4 CAD          0.0740    -1.2780     2.1410 c3         1 449      -0.082400
      5 CAE         -0.5060    -1.2500     0.7250 c3         1 449      -0.190700
      6 CAH         -2.0100    -1.2170     0.7980 c          1 449       0.888600
      7 OAI         -2.6770    -2.2180     1.3930 o          1 449      -0.810800
      8 OAJ         -2.6170    -0.2880     0.3180 o          1 449      -0.810800
      9 NAK          2.0240     0.0000     1.3830 n4         1 449      -0.565800
     10 HAA         -0.3600     0.8840     0.5120 hc         1 449       0.086450
     11 HAAA        -0.3600    -0.0050    -1.0220 hc         1 449       0.086450
     12 HAB          1.8890     0.8860    -0.5100 hx         1 449       0.081700
     13 HABA         1.8890    -0.8860    -0.5100 hx         1 449       0.081700
     14 HAC          1.9590    -2.0890     1.5040 hx         1 449       0.081700
     15 HACA         2.0150    -1.2480     3.0630 hx         1 449       0.081700
     16 HAD         -0.2330    -2.1890     2.6390 hc         1 449       0.086450
     17 HADA        -0.2840    -0.4180     2.6950 hc         1 449       0.086450
     18 HAE         -0.1850    -2.1330     0.1860 hc         1 449       0.059700
     19 HAF          3.8560     0.0590     2.3970 hx         1 449       0.090533
     20 HAFA         3.8950    -0.7660     0.8330 hx         1 449       0.090533
     21 HAFB         3.8010     0.9990     0.9000 hx         1 449       0.090533
     22 HAG          0.3960     1.0940     2.1230 hx         1 449       0.090533
     23 HAGA         1.7680     2.0710     1.5820 hx         1 449       0.090533
     24 HAGB         1.8630     1.1800     3.1080 hx         1 449       0.090533
     25 CAF          3.4900     0.0780     1.3780 c3         1 449       0.091100
     26 CAG          1.4760     1.1620     2.0960 c3         1 449       0.091100
@<TRIPOS>BOND
     1     1     2 1   
     2     1     5 1   
     3     2     9 1   
     4     3     4 1   
     5     3     9 1   
     6     4     5 1   
     7     5     6 1   
     8    25     9 1   
     9    26     9 1   
    10     6     7 1   
    11     6     8 1   
    12     1    10 1   
    13     1    11 1   
    14     2    12 1   
    15     2    13 1   
    16     3    14 1   
    17     3    15 1   
    18     4    16 1   
    19     4    17 1   
    20     5    18 1   
    21    25    19 1   
    22    25    20 1   
    23    25    21 1   
    24    26    22 1   
    25    26    23 1   
    26    26    24 1   
@<TRIPOS>SUBSTRUCTURE
     1 449         1 TEMP              0 ****  ****    0 ROOT
