@<TRIPOS>MOLECULE
44A
   30    32     1     0     0
SMALL
bcc


@<TRIPOS>ATOM
      1 N1           0.0000     0.0000     0.0000 nb         1 44A      -0.757000
      2 C2           1.3200     0.0000     0.0000 ca         1 44A       0.666900
      3 N3           2.0270     0.0000     1.1100 nb         1 44A      -0.661000
      4 C4           1.4260     0.0000     2.2950 ca         1 44A       0.265800
      5 C5           0.0220     0.0010     2.3490 ca         1 44A      -0.238200
      6 C6          -0.6890     0.0010     1.1370 ca         1 44A       0.584200
      7 N6          -2.0720     0.0010     1.1270 nv         1 44A      -0.504500
      8 N7          -0.3270     0.0010     3.6580 nc         1 44A      -0.533100
      9 C8           0.7470     0.0010     4.3930 cd         1 44A       0.285700
     10 N9           1.8550     0.0000     3.5990 na         1 44A       0.212000
     11 OAL          4.0130    -1.1210     7.7990 o          1 44A      -0.874300
     12 OAN          6.1420     1.5810     5.0600 oh         1 44A      -0.577800
     13 OAO          4.4820     1.8920     3.1540 oh         1 44A      -0.580800
     14 OBV          3.5370    -0.8120     5.2270 os         1 44A      -0.359600
     15 CCC          4.9460    -0.6510     7.1920 c          1 44A       0.974600
     16 CCK          4.8370     1.1540     5.4580 c3         1 44A       0.145100
     17 CCL          3.8290     1.3490     4.3020 c3         1 44A       0.115100
     18 CCM          4.8210    -0.3680     5.7170 c3         1 44A       0.055100
     19 CCN          3.3230    -0.0780     4.0020 c3         1 44A       0.115800
     20 H2           1.8390     0.0040    -0.9510 h5         1 44A      -0.012900
     21 HN6         -2.5660     0.1540     0.2710 hn         1 44A       0.270800
     22 HN6A        -2.5780    -0.1880     1.9700 hn         1 44A       0.270800
     23 H8           0.7590     0.0030     5.4760 h5         1 44A       0.049800
     24 HOAN         6.4160     2.3010     5.6040 ho         1 44A       0.397000
     25 HOAO         5.1930     1.3270     2.9010 ho         1 44A       0.406000
     26 O5           6.0940    -0.3790     7.8320 o          1 44A      -0.874300
     27 HCK          4.5080     1.6900     6.3400 h1         1 44A       0.033700
     28 HCL          3.0100     1.9850     4.6160 h1         1 44A       0.045700
     29 HCM          5.6190    -0.8510     5.1670 h1         1 44A       0.029700
     30 HCN          3.8990    -0.5180     3.1960 h2         1 44A       0.048700
@<TRIPOS>BOND
     1     1     2 ar  
     2     1     6 ar  
     3     2     3 ar  
     4     2    20 1   
     5     3     4 ar  
     6     4     5 ar  
     7     4    10 1   
     8     5     6 ar  
     9     5     8 1   
    10     6     7 1   
    11     7    21 1   
    12     7    22 1   
    13     8     9 2   
    14     9    10 1   
    15     9    23 1   
    16    10    19 1   
    17    11    15 1   
    18    12    16 1   
    19    12    24 1   
    20    13    17 1   
    21    13    25 1   
    22    14    18 1   
    23    14    19 1   
    24    15    18 1   
    25    15    26 1   
    26    16    17 1   
    27    16    18 1   
    28    16    27 1   
    29    17    19 1   
    30    17    28 1   
    31    18    29 1   
    32    19    30 1   
@<TRIPOS>SUBSTRUCTURE
     1 44A         1 TEMP              0 ****  ****    0 ROOT
