@<TRIPOS>MOLECULE
molecule
   30    30     1     0     0
SMALL
bcc


@<TRIPOS>ATOM
      1 F35          0.0000     0.0000     0.0000 f          1 44B      -0.209967
      2 C34          1.3990     0.0000     0.0000 c3         1 44B       0.594400
      3 F37          1.8650     0.0000     1.3180 f          1 44B      -0.209967
      4 F36          1.8650     1.1410    -0.6600 f          1 44B      -0.209967
      5 C33          1.9080    -1.2500    -0.7200 c3         1 44B       0.131100
      6 O42          1.3340    -1.3130    -2.0270 oh         1 44B      -0.552800
      7 C38          1.5080    -2.4940     0.0730 c3         1 44B       0.594400
      8 F39          2.0700    -2.4320     1.3520 f          1 44B      -0.209967
      9 F40          0.1140    -2.5530     0.1780 f          1 44B      -0.209967
     10 F41          1.9740    -3.6380    -0.5850 f          1 44B      -0.209967
     11 C26          3.4090    -1.1870    -0.8340 ca         1 44B      -0.179300
     12 C27          4.1820    -1.0600     0.3050 ca         1 44B      -0.038000
     13 C28          5.5580    -1.0070     0.2040 ca         1 44B      -0.209000
     14 C25          4.0100    -1.2530    -2.0780 ca         1 44B      -0.038000
     15 C24          5.3850    -1.1960    -2.1850 ca         1 44B      -0.209000
     16 C23          6.1650    -1.0720    -1.0420 ca         1 44B       0.227600
     17 N15          7.5570    -1.0140    -1.1470 nu         1 44B      -0.823600
     18 C16          8.3780    -0.8850     0.0580 c3         1 44B       0.189800
     19 C19          9.8570    -0.8440    -0.3340 c3         1 44B       0.605900
     20 F22         10.6400    -0.7190     0.8180 f          1 44B      -0.220633
     21 F21         10.1940    -2.0240    -1.0020 f          1 44B      -0.220633
     22 F20         10.0860     0.2500    -1.1730 f          1 44B      -0.220633
     23 H42          0.3970    -1.3880    -1.9560 ho         1 44B       0.429000
     24 H27          3.7080    -1.0090     1.2780 ha         1 44B       0.157500
     25 H28          6.1630    -0.9090     1.0970 ha         1 44B       0.138500
     26 H25          3.4010    -1.3490    -2.9690 ha         1 44B       0.157500
     27 H24          5.8550    -1.2470    -3.1600 ha         1 44B       0.138500
     28 H15          7.9930    -1.0610    -2.0470 hn         1 44B       0.454800
     29 H161         8.1160     0.0300     0.5760 h1         1 44B       0.076700
     30 H162         8.2000    -1.7320     0.7090 h1         1 44B       0.076700
@<TRIPOS>BOND
     1     1     2 1
     2     2     3 1
     3     2     4 1
     4     2     5 1
     5     5     6 1
     6     5     7 1
     7     5    11 1
     8     6    23 1
     9     7     8 1
    10     7     9 1
    11     7    10 1
    12    11    12 ar
    13    11    14 ar
    14    12    13 ar
    15    12    24 1
    16    13    16 ar
    17    13    25 1
    18    14    15 ar
    19    14    26 1
    20    15    16 ar
    21    15    27 1
    22    16    17 1
    23    17    18 1
    24    17    28 1
    25    18    19 1
    26    18    29 1
    27    18    30 1
    28    19    20 1
    29    19    21 1
    30    19    22 1
@<TRIPOS>SUBSTRUCTURE
     1 44B         1 TEMP              0 ****  ****    0 ROOT
