@<TRIPOS>MOLECULE
molecule
   62    65     1     0     0
SMALL
bcc


@<TRIPOS>ATOM
      1 C1           0.0000     0.0000     0.0000 ca         1 44C      -0.110500
      2 C2           1.3830     0.0000     0.0000 ca         1 44C      -0.138000
      3 C3           2.1130     0.0000     1.2050 cp         1 44C      -0.089000
      4 C4           1.3620    -0.0010     2.4120 ca         1 44C      -0.138000
      5 C5          -0.0210     0.0020     2.4090 ca         1 44C      -0.110500
      6 C6          -0.7170     0.0020     1.2050 ca         1 44C      -0.084600
      7 C7           3.5110    -0.0020     1.2080 cp         1 44C      -0.023000
      8 C8           4.2720     1.0000     0.5330 ca         1 44C      -0.100000
      9 C9           5.6550     0.9970     0.5360 ca         1 44C      -0.179000
     10 C10          6.3360    -0.0080     1.2120 ca         1 44C       0.132100
     11 C11          5.6190    -1.0040     1.8830 ca         1 44C      -0.179000
     12 C12          4.2350    -1.0050     1.8830 ca         1 44C      -0.100000
     13 C13         -2.2160     0.0030     1.1910 c          1 44C       0.874200
     14 O14         -2.8380     0.0230     0.1240 o          1 44C      -0.837800
     15 O15         -2.9050    -0.0170     2.3650 o          1 44C      -0.837800
     16 O16          7.7680    -0.0120     1.1830 os         1 44C      -0.395900
     17 C17          8.6400    -1.2040     1.6030 c3         1 44C       0.154400
     18 C18          9.8510    -0.8320     2.5320 c3         1 44C      -0.080400
     19 C19         12.1330    -1.2790     1.1800 c3         1 44C       0.187400
     20 C20         11.1130    -0.2480     1.7800 c3         1 44C      -0.104400
     21 O21         13.1630    -1.5010     2.0830 os         1 44C      -0.410900
     22 C22         14.5410    -1.2890     1.9710 ca         1 44C       0.106100
     23 C23         14.9920    -0.0260     1.7570 ca         1 44C      -0.141500
     24 C24         16.3770     0.1760     1.6730 ca         1 44C      -0.153500
     25 C25         17.3340    -0.8790     1.7850 ca         1 44C       0.200600
     26 C26         16.8850    -2.1300     2.0250 ca         1 44C      -0.153500
     27 C27         15.5010    -2.3330     2.1060 ca         1 44C      -0.141500
     28 N28         18.7900    -0.7330     1.7440 nu         1 44C      -0.715000
     29 C29         19.8990    -1.2640     2.4600 ca         1 44C       0.221600
     30 C30         19.6620    -1.7010     3.7910 ca         1 44C      -0.212000
     31 C31         20.6990    -2.2030     4.4860 ca         1 44C      -0.120000
     32 C32         21.9940    -2.2640     3.8720 ca         1 44C      -0.218000
     33 C33         22.2630    -1.8090     2.5660 ca         1 44C      -0.068000
     34 C34         21.2340    -1.2880     1.8380 ca         1 44C      -0.166600
     35 C35         21.6720    -0.7900     0.4290 c          1 44C       0.891200
     36 O36         22.9800    -0.8890    -0.0870 o          1 44C      -0.831300
     37 O37         20.8560    -0.2780    -0.2700 o          1 44C      -0.831300
     38 H1          -0.5350    -0.0000    -0.9420 ha         1 44C       0.150000
     39 H2           1.9140    -0.0000    -0.9440 ha         1 44C       0.108500
     40 H4           1.8870    -0.0010     3.3600 ha         1 44C       0.108500
     41 H5          -0.5640     0.0030     3.3460 ha         1 44C       0.150000
     42 H8           3.7510     1.7870     0.0030 ha         1 44C       0.135000
     43 H9           6.2030     1.7720     0.0140 ha         1 44C       0.129500
     44 H11          6.1540    -1.7850     2.4090 ha         1 44C       0.129500
     45 H12          3.7010    -1.7870     2.4100 ha         1 44C       0.135000
     46 H171         9.0280    -1.6760     0.7080 h1         1 44C       0.040700
     47 H172         8.0150    -1.9190     2.1240 h1         1 44C       0.040700
     48 H181        10.1560    -1.7230     3.0680 hc         1 44C       0.054200
     49 H182         9.5140    -0.0970     3.2530 hc         1 44C       0.054200
     50 H191        12.5430    -0.8850     0.2580 h1         1 44C       0.032700
     51 H192        11.6240    -2.2130     0.9780 h1         1 44C       0.032700
     52 H201        11.6510     0.3840     2.4770 hc         1 44C       0.052700
     53 H202        10.7560     0.3760     0.9690 hc         1 44C       0.052700
     54 H23         14.3290     0.8180     1.9050 ha         1 44C       0.131000
     55 H24         16.7400     1.1850     1.5150 ha         1 44C       0.143500
     56 H26         17.5500    -2.9770     1.9040 ha         1 44C       0.143500
     57 H27         15.1410    -3.3390     2.2830 ha         1 44C       0.131000
     58 H28         19.0800    -0.0970     1.0280 hn         1 44C       0.451800
     59 H30         18.6720    -1.6420     4.2290 ha         1 44C       0.124000
     60 H31         20.5570    -2.5580     5.5000 ha         1 44C       0.105000
     61 H32         22.8140    -2.6750     4.4490 ha         1 44C       0.098000
     62 H33         23.2630    -1.8650     2.1530 ha         1 44C       0.166000
@<TRIPOS>BOND
     1     1     2 ar
     2     1     6 ar
     3     1    38 1
     4     2     3 ar
     5     2    39 1
     6     3     4 ar
     7     3     7 1
     8     4     5 ar
     9     4    40 1
    10     5     6 ar
    11     5    41 1
    12     6    13 1
    13     7     8 ar
    14     7    12 ar
    15     8     9 ar
    16     8    42 1
    17     9    10 ar
    18     9    43 1
    19    10    11 ar
    20    10    16 1
    21    11    12 ar
    22    11    44 1
    23    12    45 1
    24    13    14 1
    25    13    15 1
    26    16    17 1
    27    17    18 1
    28    17    46 1
    29    17    47 1
    30    18    20 1
    31    18    48 1
    32    18    49 1
    33    19    20 1
    34    19    21 1
    35    19    50 1
    36    19    51 1
    37    20    52 1
    38    20    53 1
    39    21    22 1
    40    22    23 ar
    41    22    27 ar
    42    23    24 ar
    43    23    54 1
    44    24    25 ar
    45    24    55 1
    46    25    26 ar
    47    25    28 1
    48    26    27 ar
    49    26    56 1
    50    27    57 1
    51    28    29 1
    52    28    58 1
    53    29    30 ar
    54    29    34 ar
    55    30    31 ar
    56    30    59 1
    57    31    32 ar
    58    31    60 1
    59    32    33 ar
    60    32    61 1
    61    33    34 ar
    62    33    62 1
    63    34    35 1
    64    35    36 1
    65    35    37 1
@<TRIPOS>SUBSTRUCTURE
     1 44C         1 TEMP              0 ****  ****    0 ROOT
