@<TRIPOS>MOLECULE
molecule
   51    50     1     0     0
SMALL
bcc


@<TRIPOS>ATOM
      1 O13          0.0000     0.0000     0.0000 o          1 44E      -0.910500
      2 P            1.6100     0.0000     0.0000 p5         1 44E       1.178900
      3 O14          2.1470     0.0000     1.5180 o          1 44E      -0.910500
      4 O12          2.1040    -1.2080    -0.6970 o          1 44E      -0.910500
      5 O11          2.1470     1.3140    -0.7590 os         1 44E      -0.560200
      6 C1           3.5320     1.5530    -1.0170 c3         1 44E       0.206400
      7 C2           3.6910     2.8860    -1.7510 c3         1 44E       0.132100
      8 O21          3.2710     3.9700    -0.8810 os         1 44E      -0.387900
      9 C21          4.2100     4.5220    -0.0980 c          1 44E       0.641100
     10 O22          5.3460     4.1140    -0.1360 o          1 44E      -0.587000
     11 C22          3.8470     5.6520     0.8300 c3         1 44E      -0.129400
     12 C23          5.0910     6.0960     1.6050 c3         1 44E      -0.071400
     13 C3           2.8280     2.8800    -3.0140 c3         1 44E       0.165400
     14 O31          1.4530     2.5760    -2.6580 os         1 44E      -0.312900
     15 C31          0.5600     2.5320    -3.6590 c          1 44E       0.642100
     16 O32          0.9160     2.7410    -4.7960 o          1 44E      -0.635000
     17 C32         -0.8860     2.2220    -3.3670 c3         1 44E      -0.128400
     18 C33         -1.6830     2.2330    -4.6720 c3         1 44E      -0.071400
     19 C34         -3.1510     1.9190    -4.3750 c3         1 44E      -0.083400
     20 C35         -3.9490     1.9310    -5.6800 c3         1 44E      -0.083400
     21 C36         -5.4170     1.6160    -5.3820 c3         1 44E      -0.092100
     22 H3           3.9290     0.7530    -1.6300 h1         1 44E       0.027700
     23 H4           4.0730     1.5910    -0.0790 h1         1 44E       0.027700
     24 H5           4.7300     3.0260    -2.0250 h1         1 44E       0.044700
     25 H6           3.0880     5.3180     1.5270 hc         1 44E       0.069200
     26 H7           3.4650     6.4860     0.2530 hc         1 44E       0.069200
     27 H8           5.4720     5.2630     2.1830 hc         1 44E       0.055200
     28 H9           5.8500     6.4300     0.9090 hc         1 44E       0.055200
     29 H11          3.1980     2.1290    -3.7010 h1         1 44E       0.032200
     30 H12          2.8720     3.8550    -3.4860 h1         1 44E       0.032200
     31 H13         -0.9600     1.2450    -2.9060 hc         1 44E       0.100200
     32 H14         -1.2860     2.9700    -2.6930 hc         1 44E       0.100200
     33 H15         -1.2830     1.4860    -5.3460 hc         1 44E       0.040700
     34 H16         -1.6090     3.2110    -5.1330 hc         1 44E       0.040700
     35 H17         -3.2250     0.9410    -3.9150 hc         1 44E       0.048700
     36 H18         -3.5510     2.6660    -3.7000 hc         1 44E       0.048700
     37 H19         -3.5500     1.1840    -6.3550 hc         1 44E       0.032700
     38 H20         -3.8760     2.9090    -6.1400 hc         1 44E       0.032700
     39 H21         -5.9830     1.6250    -6.3060 hc         1 44E       0.025367
     40 H22         -5.8170     2.3640    -4.7080 hc         1 44E       0.025367
     41 H23         -5.4910     0.6380    -4.9230 hc         1 44E       0.025367
     42 C4           4.7220     7.2430     2.5480 c3         1 44E      -0.084400
     43 C5           5.9660     7.6860     3.3210 c3         1 44E      -0.083400
     44 C6           5.5970     8.8340     4.2650 c3         1 44E      -0.092100
     45 H10          3.9630     6.9090     3.2440 hc         1 44E       0.038200
     46 H24          4.3400     8.0770     1.9700 hc         1 44E       0.038200
     47 H25          6.3480     6.8530     3.8980 hc         1 44E       0.040200
     48 H26          6.7240     8.0210     2.6240 hc         1 44E       0.040200
     49 H27          5.2150     9.6680     3.6870 hc         1 44E       0.025700
     50 H28          6.4780     9.1480     4.8120 hc         1 44E       0.025700
     51 H29          4.8380     8.4990     4.9620 hc         1 44E       0.025700
@<TRIPOS>BOND
     1    10     9 2
     2     4     2 1
     3     6     7 1
     4     6     5 1
     5     7    13 1
     6     7     8 1
     7    12    11 1
     8     9     8 1
     9     9    11 1
    10    13    14 1
    11     5     2 1
    12     2     3 1
    13     2     1 1
    14    17    18 1
    15    17    15 1
    16    14    15 1
    17    18    19 1
    18    15    16 2
    19    19    20 1
    20    21    20 1
    21     6    22 1
    22     6    23 1
    23     7    24 1
    24    11    25 1
    25    11    26 1
    26    12    27 1
    27    12    28 1
    28    13    29 1
    29    13    30 1
    30    17    31 1
    31    17    32 1
    32    18    33 1
    33    18    34 1
    34    19    35 1
    35    19    36 1
    36    20    37 1
    37    20    38 1
    38    21    39 1
    39    21    40 1
    40    21    41 1
    41    12    42 1
    42    42    43 1
    43    43    44 1
    44    42    45 1
    45    42    46 1
    46    43    47 1
    47    43    48 1
    48    44    49 1
    49    44    50 1
    50    44    51 1
@<TRIPOS>SUBSTRUCTURE
     1 44E         1 TEMP              0 ****  ****    0 ROOT
