@<TRIPOS>MOLECULE
44F
   43    44     1     0     0
SMALL
bcc


@<TRIPOS>ATOM
      1 CAA          0.0000     0.0000     0.0000 c3         1 44F       0.243700
      2 OAQ          1.4290     0.0000     0.0000 os         1 44F      -0.304900
      3 CAW          2.0460     0.0000     1.2120 ca         1 44F       0.162100
      4 CAI          3.4310     0.0000     1.2850 ca         1 44F      -0.118000
      5 CAH          1.2900     0.0060     2.3750 ca         1 44F      -0.211000
      6 CAT          1.9200     0.0050     3.6060 ca         1 44F       0.012400
      7 ClC          0.9760     0.0120     5.0640 cl         1 44F      -0.030400
      8 CAG          3.3020    -0.0000     3.6770 ca         1 44F      -0.141000
      9 CAU          4.0560     0.0000     2.5180 ca         1 44F      -0.047300
     10 CAM          5.5600    -0.0060     2.5990 c3         1 44F       0.202100
     11 NAN          6.0440    -1.3930     2.6220 n7         1 44F      -0.583200
     12 CAK          7.5110    -1.4390     2.6990 c3         1 44F       0.149800
     13 CAJ          7.9760    -2.8960     2.7210 c3         1 44F      -0.044400
     14 CAL          9.5020    -2.9430     2.8030 c3         1 44F       0.066000
     15 NAO          9.9480    -4.3380     2.8230 ns         1 44F      -0.217900
     16 CAS         11.2620    -4.6250     2.8930 c          1 44F       0.566100
     17 OAB         12.0800    -3.7260     2.9390 o          1 44F      -0.693100
     18 NAP         11.6720    -5.9090     2.9120 ns         1 44F      -0.039100
     19 CAV         13.0470    -6.2110     2.8700 cc         1 44F      -0.077400
     20 CAE         13.9850    -5.3510     2.3160 cc         1 44F      -0.126000
     21 CAD         15.2430    -5.7890     2.3590 cd         1 44F       0.016900
     22 SAR         15.2950    -7.3680     3.1310 ss         1 44F      -0.282800
     23 CAF         13.5520    -7.3450     3.3670 cd         1 44F      -0.065100
     24 H1          -0.3610    -0.0170    -1.0210 h1         1 44F      -0.000967
     25 H2          -0.3610     0.8930     0.4950 h1         1 44F      -0.000967
     26 H3          -0.3610    -0.8760     0.5260 h1         1 44F      -0.000967
     27 H4           4.0220     0.0010     0.3780 ha         1 44F       0.125000
     28 H5           0.2100     0.0660     2.3190 ha         1 44F       0.132000
     29 H6           3.7940    -0.0010     4.6420 ha         1 44F       0.117000
     30 H7           5.8750     0.5010     3.5030 h1         1 44F       0.012700
     31 H8           5.9700     0.5050     1.7370 h1         1 44F       0.012700
     32 H9           5.6540    -1.8710     3.4100 hn         1 44F       0.255800
     33 H11          7.9340    -0.9370     1.8370 h1         1 44F       0.010700
     34 H12          7.8400    -0.9410     3.6040 h1         1 44F       0.010700
     35 H13          7.5520    -3.3970     3.5830 hc         1 44F       0.021700
     36 H14          7.6470    -3.3930     1.8160 hc         1 44F       0.021700
     37 H15          9.9260    -2.4410     1.9420 h1         1 44F       0.026700
     38 H16          9.8310    -2.4470     3.7080 h1         1 44F       0.026700
     39 H17          9.2750    -5.0790     2.7860 hn         1 44F       0.168500
     40 H18         10.9980    -6.6490     2.9430 hn         1 44F       0.159500
     41 H19         13.7150    -4.3960     1.8820 ha         1 44F       0.165000
     42 H20         16.1030    -5.2550     1.9750 h4         1 44F       0.148000
     43 H21         12.9760    -8.1320     3.8370 h4         1 44F       0.150000
@<TRIPOS>BOND
     1     1     2 1   
     2     1    24 1   
     3     1    25 1   
     4     1    26 1   
     5     2     3 1   
     6     3     4 ar  
     7     3     5 ar  
     8     4     9 ar  
     9     4    27 1   
    10     5     6 ar  
    11     5    28 1   
    12     6     7 1   
    13     6     8 ar  
    14     8     9 ar  
    15     8    29 1   
    16     9    10 1   
    17    10    11 1   
    18    10    30 1   
    19    10    31 1   
    20    11    12 1   
    21    11    32 1   
    22    12    13 1   
    23    12    33 1   
    24    12    34 1   
    25    13    14 1   
    26    13    35 1   
    27    13    36 1   
    28    14    15 1   
    29    14    37 1   
    30    14    38 1   
    31    15    16 1   
    32    15    39 1   
    33    16    17 2   
    34    16    18 1   
    35    18    19 1   
    36    18    40 1   
    37    19    20 1   
    38    19    23 2   
    39    20    21 2   
    40    20    41 1   
    41    21    22 1   
    42    21    42 1   
    43    22    23 1   
    44    23    43 1   
@<TRIPOS>SUBSTRUCTURE
     1 44F         1 TEMP              0 ****  ****    0 ROOT
