@<TRIPOS>MOLECULE
molecule
   43    44     1     0     0
SMALL
bcc


@<TRIPOS>ATOM
      1 CAA          0.0000     0.0000     0.0000 c3         1 44F       0.126700
      2 OAQ          1.4290     0.0000     0.0000 os         1 44F      -0.324900
      3 CAW          2.0460     0.0000     1.2120 ca         1 44F       0.150100
      4 CAI          3.4310     0.0000     1.2850 ca         1 44F      -0.135000
      5 CAH          1.2900     0.0060     2.3750 ca         1 44F      -0.216000
      6 CAT          1.9200     0.0050     3.6060 ca         1 44F       0.067400
      7 ClC          0.9760     0.0120     5.0640 cl         1 44F      -0.109400
      8 CAG          3.3020    -0.0000     3.6770 ca         1 44F      -0.160000
      9 CAU          4.0560     0.0000     2.5180 ca         1 44F      -0.043300
     10 CAM          5.5600    -0.0060     2.5990 c3         1 44F       0.206100
     11 NAN          6.0440    -1.3930     2.6220 n7         1 44F      -0.815200
     12 CAK          7.5110    -1.4390     2.6990 c3         1 44F       0.160800
     13 CAJ          7.9760    -2.8960     2.7210 c3         1 44F      -0.103400
     14 CAL          9.5020    -2.9430     2.8030 c3         1 44F       0.130000
     15 NAO          9.9480    -4.3380     2.8230 ns         1 44F      -0.601900
     16 CAS         11.2620    -4.6250     2.8930 c          1 44F       0.783100
     17 OAB         12.0800    -3.7260     2.9390 o          1 44F      -0.647100
     18 NAP         11.6720    -5.9090     2.9120 ns         1 44F      -0.481100
     19 CAV         13.0470    -6.2110     2.8700 cc         1 44F       0.062600
     20 CAE         13.9850    -5.3510     2.3160 cd         1 44F      -0.149000
     21 CAD         15.2430    -5.7890     2.3590 cc         1 44F      -0.064100
     22 SAR         15.2950    -7.3680     3.1310 ss         1 44F      -0.165800
     23 CAF         13.5520    -7.3450     3.3670 cd         1 44F      -0.137100
     24 H1          -0.3610    -0.0170    -1.0210 h1         1 44F       0.044033
     25 H2          -0.3610     0.8930     0.4950 h1         1 44F       0.044033
     26 H3          -0.3610    -0.8760     0.5260 h1         1 44F       0.044033
     27 H4           4.0220     0.0010     0.3780 ha         1 44F       0.154000
     28 H5           0.2100     0.0660     2.3190 ha         1 44F       0.149000
     29 H6           3.7940    -0.0010     4.6420 ha         1 44F       0.142000
     30 H7           5.8750     0.5010     3.5030 h1         1 44F       0.043700
     31 H8           5.9700     0.5050     1.7370 h1         1 44F       0.043700
     32 H9           5.6540    -1.8710     3.4100 hn         1 44F       0.357800
     33 H11          7.9340    -0.9370     1.8370 h1         1 44F       0.037200
     34 H12          7.8400    -0.9410     3.6040 h1         1 44F       0.037200
     35 H13          7.5520    -3.3970     3.5830 hc         1 44F       0.053700
     36 H14          7.6470    -3.3930     1.8160 hc         1 44F       0.053700
     37 H15          9.9260    -2.4410     1.9420 h1         1 44F       0.054700
     38 H16          9.8310    -2.4470     3.7080 h1         1 44F       0.054700
     39 H17          9.2750    -5.0790     2.7860 hn         1 44F       0.308500
     40 H18         10.9980    -6.6490     2.9430 hn         1 44F       0.318500
     41 H19         13.7150    -4.3960     1.8820 ha         1 44F       0.186000
     42 H20         16.1030    -5.2550     1.9750 h4         1 44F       0.173000
     43 H21         12.9760    -8.1320     3.8370 h4         1 44F       0.168000
@<TRIPOS>BOND
     1    22    21 1
     2    22    23 1
     3    21    20 2
     4    20    19 1
     5    23    19 2
     6    19    18 1
     7    18    16 1
     8    17    16 2
     9    16    15 1
    10    15    14 1
    11    14    13 1
    12    13    12 1
    13    12    11 1
    14    11    10 1
    15     1     2 1
    16    10     9 1
    17     8     9 ar
    18     8     6 ar
    19     7     6 1
    20     9     4 ar
    21     6     5 ar
    22     4     3 ar
    23     5     3 ar
    24     3     2 1
    25     1    24 1
    26     1    25 1
    27     1    26 1
    28     4    27 1
    29     5    28 1
    30     8    29 1
    31    10    30 1
    32    10    31 1
    33    11    32 1
    34    12    33 1
    35    12    34 1
    36    13    35 1
    37    13    36 1
    38    14    37 1
    39    14    38 1
    40    15    39 1
    41    18    40 1
    42    20    41 1
    43    21    42 1
    44    23    43 1
@<TRIPOS>SUBSTRUCTURE
     1 44F         1 TEMP              0 ****  ****    0 ROOT
