@<TRIPOS>MOLECULE
molecule
   63    62     1     0     0
SMALL
bcc


@<TRIPOS>ATOM
      1 C32          0.0000     0.0000     0.0000 c3         1 44G      -0.124400
      2 C31          1.5070     0.0000     0.0000 c          1 44G       0.636100
      3 O31          2.1110     0.0000     1.0470 o          1 44G      -0.524000
      4 O2           2.1790     0.0000    -1.1610 os         1 44G      -0.426900
      5 C2           3.6280     0.0010    -1.0840 c3         1 44G       0.138100
      6 C1           4.1370     1.4430    -1.0570 c3         1 44G       0.218400
      7 O3P          3.6950     2.0820     0.1420 os         1 44G      -0.589200
      8 P            4.0480     3.6100     0.5030 p5         1 44G       1.372800
      9 O1P          3.6160     4.4910    -0.6040 o          1 44G      -0.827000
     10 O2P          5.6370     3.7580     0.7180 o          1 44G      -0.827000
     11 O4P          3.2830     4.0330     1.8560 os         1 44G      -0.596200
     12 C4           3.3100     5.3610     2.3820 c3         1 44G       0.226400
     13 C5           2.4840     5.4160     3.6690 c3         1 44G       0.142100
     14 O5           1.1120     5.1560     3.3660 oh         1 44G      -0.594800
     15 C6           2.6130     6.8040     4.3000 c3         1 44G       0.118400
     16 O6           1.9390     6.8200     5.5600 oh         1 44G      -0.616800
     17 C10          4.2040    -0.7200    -2.3050 c3         1 44G       0.146400
     18 O1           3.8180    -2.1200    -2.2680 os         1 44G      -0.423900
     19 C12          4.2440    -2.8960    -3.2760 c          1 44G       0.631100
     20 C13          3.8830    -4.3590    -3.3040 c3         1 44G      -0.128400
     21 O3           4.9190    -2.4240    -4.1600 o          1 44G      -0.559000
     22 H1          -0.3610    -0.8840    -0.5120 hc         1 44G       0.064200
     23 H2          -0.3610     0.8850    -0.5100 hc         1 44G       0.064200
     24 H4           3.9420    -0.5100    -0.1820 h1         1 44G       0.085700
     25 H5           3.7500     1.9790    -1.9150 h1         1 44G       0.042700
     26 H6           5.2200     1.4450    -1.0890 h1         1 44G       0.042700
     27 H8           4.3340     5.6430     2.5980 h1         1 44G       0.037700
     28 H9           2.8920     6.0460     1.6550 h1         1 44G       0.037700
     29 H10          2.8480     4.6680     4.3640 h1         1 44G       0.047700
     30 H11          0.7940     4.4610     3.9180 ho         1 44G       0.398000
     31 H12          3.6610     7.0370     4.4480 h1         1 44G       0.027700
     32 H13          2.1690     7.5420     3.6430 h1         1 44G       0.027700
     33 H14          2.1200     7.6320     6.0030 ho         1 44G       0.389000
     34 H15          5.2840    -0.6430    -2.2940 h1         1 44G       0.063200
     35 H16          3.8190    -0.2630    -3.2090 h1         1 44G       0.063200
     36 H17          4.2700    -4.8440    -2.4170 hc         1 44G       0.068700
     37 H18          2.8050    -4.4640    -3.3320 hc         1 44G       0.068700
     38 C3          -0.5110    -0.0010     1.4420 c3         1 44G      -0.072400
     39 C7          -2.0410    -0.0010     1.4410 c3         1 44G      -0.083400
     40 C8          -2.5520    -0.0020     2.8840 c3         1 44G      -0.082400
     41 C9          -4.0820    -0.0020     2.8830 c3         1 44G      -0.092100
     42 C11          4.4910    -5.0110    -4.5490 c3         1 44G      -0.072400
     43 C14          4.1240    -6.4950    -4.5780 c3         1 44G      -0.084400
     44 C15          4.7310    -7.1460    -5.8220 c3         1 44G      -0.082400
     45 C16          4.3650    -8.6310    -5.8510 c3         1 44G      -0.092100
     46 H3          -0.1490     0.8830     1.9540 hc         1 44G       0.061200
     47 H19         -0.1500    -0.8860     1.9520 hc         1 44G       0.061200
     48 H20         -2.4010     0.8840     0.9310 hc         1 44G       0.036700
     49 H21         -2.4020    -0.8850     0.9300 hc         1 44G       0.036700
     50 H22         -2.1910    -0.8860     3.3940 hc         1 44G       0.043700
     51 H23         -2.1920     0.8830     3.3950 hc         1 44G       0.043700
     52 H24         -4.4440     0.0180     3.9030 hc         1 44G       0.028367
     53 H25         -4.4420    -0.8970     2.3890 hc         1 44G       0.028367
     54 H26         -4.4430     0.8720     2.3540 hc         1 44G       0.028367
     55 H27          5.5690    -4.9060    -4.5200 hc         1 44G       0.057700
     56 H28          4.1040    -4.5260    -5.4360 hc         1 44G       0.057700
     57 H29          3.0460    -6.6000    -4.6050 hc         1 44G       0.039200
     58 H30          4.5120    -6.9810    -3.6910 hc         1 44G       0.039200
     59 H31          4.3430    -6.6610    -6.7100 hc         1 44G       0.042700
     60 H32          5.8090    -7.0410    -5.7950 hc         1 44G       0.042700
     61 H33          4.7900    -9.0910    -6.7350 hc         1 44G       0.031033
     62 H34          4.7580    -9.1170    -4.9660 hc         1 44G       0.031033
     63 H35          3.2870    -8.7370    -5.8720 hc         1 44G       0.031033
@<TRIPOS>BOND
     1    16    15 1
     2    15    13 1
     3     6     5 1
     4     6     7 1
     5    13    14 1
     6    13    12 1
     7     5    17 1
     8     5     4 1
     9     3     2 2
    10     9     8 1
    11    11    12 1
    12    11     8 1
    13     2     1 1
    14     2     4 1
    15    17    18 1
    16     8     7 1
    17     8    10 1
    18    21    19 2
    19    18    19 1
    20    19    20 1
    21     1    22 1
    22     1    23 1
    23     5    24 1
    24     6    25 1
    25     6    26 1
    26    12    27 1
    27    12    28 1
    28    13    29 1
    29    14    30 1
    30    15    31 1
    31    15    32 1
    32    16    33 1
    33    17    34 1
    34    17    35 1
    35    20    36 1
    36    20    37 1
    37     1    38 1
    38    38    39 1
    39    39    40 1
    40    40    41 1
    41    20    42 1
    42    42    43 1
    43    43    44 1
    44    44    45 1
    45    38    46 1
    46    38    47 1
    47    39    48 1
    48    39    49 1
    49    40    50 1
    50    40    51 1
    51    41    52 1
    52    41    53 1
    53    41    54 1
    54    42    55 1
    55    42    56 1
    56    43    57 1
    57    43    58 1
    58    44    59 1
    59    44    60 1
    60    45    61 1
    61    45    62 1
    62    45    63 1
@<TRIPOS>SUBSTRUCTURE
     1 44G         1 TEMP              0 ****  ****    0 ROOT
