@<TRIPOS>MOLECULE
44I
   74    78     1     0     0
SMALL
bcc


@<TRIPOS>ATOM
      1 C01          0.0000     0.0000     0.0000 c3         1 44I       0.175100
      2 N05          1.4690     0.0000     0.0000 n7         1 44I      -0.579200
      3 C07          1.9950     0.0000     1.3720 c3         1 44I       0.118800
      4 C10          3.5240     0.0000     1.3320 c3         1 44I       0.153800
      5 N13          4.0500     0.0000     2.7040 n3         1 44I      -0.539600
      6 C14          3.7150     1.2510     3.3950 c3         1 44I       0.152800
      7 C17          4.1480     1.1590     4.8600 c3         1 44I      -0.062200
      8 C19          5.6560     0.9050     4.9270 c3         1 44I      -0.021400
      9 C22          5.9870    -0.3770     4.1550 c3         1 44I      -0.062200
     10 C24          5.5000    -0.2380     2.7120 c3         1 44I       0.152800
     11 C27          5.2760    -1.5610     4.8200 c3         1 44I       0.051000
     12 N30          3.8400    -1.2620     4.9020 n          1 44I      -0.118800
     13 C31          3.4130    -0.0060     5.5330 c3         1 44I       0.051000
     14 C34          2.9290    -2.1250     4.4080 c          1 44I       0.589100
     15 O35          3.2950    -3.1190     3.8160 o          1 44I      -0.631100
     16 C36          1.4580    -1.8560     4.5900 c3         1 44I      -0.023300
     17 C38          1.1140    -1.8860     6.0810 c3         1 44I      -0.019100
     18 N42          0.6830    -2.8820     3.8900 n          1 44I      -0.143800
     19 C43         -0.2640    -2.6070     2.8030 c3         1 44I       0.034000
     20 C46         -0.4940    -3.9650     2.1040 c3         1 44I      -0.039400
     21 C49         -0.1770    -4.9640     3.2400 c3         1 44I       0.111500
     22 N51         -1.4040    -5.3450     3.9440 n7         1 44I      -0.563100
     23 S53         -1.5770    -6.8840     4.5310 sy         1 44I       1.040200
     24 O54         -2.8410    -6.9250     5.1810 o          1 44I      -0.589800
     25 O55         -1.2190    -7.7600     3.4720 o          1 44I      -0.589800
     26 C56         -0.3640    -7.1010     5.7900 ca         1 44I      -0.141500
     27 C57          0.8980    -7.5860     5.4510 ca         1 44I       0.008000
     28 C59          1.8590    -7.7650     6.3980 ca         1 44I      -0.097000
     29 C61          1.5770    -7.4580     7.7410 ca         1 44I       0.018000
     30 C62          2.5420    -7.6290     8.7460 ca         1 44I      -0.097000
     31 C64          2.2330    -7.3210    10.0370 ca         1 44I      -0.016600
     32 Cl           3.4290    -7.5340    11.2770 cl         1 44I      -0.032400
     33 C66          0.9710    -6.8360    10.3750 ca         1 44I      -0.116000
     34 C68          0.0110    -6.6580     9.4280 ca         1 44I      -0.058000
     35 C70          0.2930    -6.9660     8.0860 ca         1 44I      -0.075000
     36 C71         -0.6710    -6.7890     7.0790 ca         1 44I       0.035000
     37 C73          0.7520    -4.1980     4.1570 c          1 44I       0.623500
     38 O74          1.4540    -4.6980     5.0090 o          1 44I      -0.643500
     39 H1          -0.3610     0.4970    -0.8920 h1         1 44I      -0.000633
     40 H2          -0.3610    -1.0210     0.0150 h1         1 44I      -0.000633
     41 H3          -0.3610     0.5240     0.8770 h1         1 44I      -0.000633
     42 H4           1.8030     0.8090    -0.4850 hn         1 44I       0.249800
     43 H6           1.6470    -0.8850     1.8920 h1         1 44I       0.016200
     44 H7           1.6470     0.8840     1.8920 h1         1 44I       0.016200
     45 H8           3.8720    -0.8840     0.8120 h1         1 44I       0.018200
     46 H9           3.8720     0.8850     0.8120 h1         1 44I       0.018200
     47 H11          2.6450     1.4140     3.3460 h1         1 44I       0.014950
     48 H12          4.2330     2.0750     2.9190 h1         1 44I       0.014950
     49 H13          3.9110     2.0840     5.3710 hc         1 44I       0.034200
     50 H14          6.1840     1.7400     4.4830 hc         1 44I       0.019200
     51 H15          5.9590     0.7930     5.9610 hc         1 44I       0.019200
     52 H16          7.0570    -0.5420     4.1650 hc         1 44I       0.034200
     53 H17          5.7170    -1.1500     2.1700 h1         1 44I       0.014950
     54 H18          6.0040     0.5970     2.2410 h1         1 44I       0.014950
     55 H19          5.4270    -2.4540     4.2250 h1         1 44I       0.031950
     56 H20          5.6730    -1.7090     5.8160 h1         1 44I       0.031950
     57 H21          2.3440     0.1190     5.4060 h1         1 44I       0.031950
     58 H22          3.6590    -0.0290     6.5880 h1         1 44I       0.031950
     59 H23          1.2160    -0.8810     4.1840 h1         1 44I       0.042700
     60 H24          0.1500    -2.3590     6.2200 hc         1 44I       0.019700
     61 H25          1.8720    -2.4460     6.6150 hc         1 44I       0.019700
     62 H26          1.0780    -0.8730     6.4640 hc         1 44I       0.019700
     63 H27          0.1630    -1.8960     2.1070 h1         1 44I       0.020200
     64 H28         -1.1970    -2.2330     3.2070 h1         1 44I       0.020200
     65 H29         -1.5240    -4.0620     1.7810 hc         1 44I       0.038200
     66 H30          0.1930    -4.0930     1.2760 hc         1 44I       0.038200
     67 H31          0.3240    -5.8380     2.8430 h1         1 44I       0.073700
     68 H32         -2.1520    -4.6870     4.0370 hn         1 44I       0.345800
     69 H33          1.1160    -7.8280     4.4180 ha         1 44I       0.121000
     70 H34          2.8350    -8.1430     6.1190 ha         1 44I       0.112000
     71 H35          3.4870    -8.1050     8.5140 ha         1 44I       0.120000
     72 H36          0.7510    -6.5990    11.4090 ha         1 44I       0.113000
     73 H37         -0.9660    -6.2800     9.7060 ha         1 44I       0.108000
     74 H38         -1.6850    -6.5140     7.3420 ha         1 44I       0.122000
@<TRIPOS>BOND
     1     1     2 1   
     2     1    39 1   
     3     1    40 1   
     4     1    41 1   
     5     2     3 1   
     6     2    42 1   
     7     3     4 1   
     8     3    43 1   
     9     3    44 1   
    10     4     5 1   
    11     4    45 1   
    12     4    46 1   
    13     5     6 1   
    14     5    10 1   
    15     6     7 1   
    16     6    47 1   
    17     6    48 1   
    18     7     8 1   
    19     7    13 1   
    20     7    49 1   
    21     8     9 1   
    22     8    50 1   
    23     8    51 1   
    24     9    10 1   
    25     9    11 1   
    26     9    52 1   
    27    10    53 1   
    28    10    54 1   
    29    11    12 1   
    30    11    55 1   
    31    11    56 1   
    32    12    13 1   
    33    12    14 1   
    34    13    57 1   
    35    13    58 1   
    36    14    15 2   
    37    14    16 1   
    38    16    17 1   
    39    16    18 1   
    40    16    59 1   
    41    17    60 1   
    42    17    61 1   
    43    17    62 1   
    44    18    19 1   
    45    18    37 1   
    46    19    20 1   
    47    19    63 1   
    48    19    64 1   
    49    20    21 1   
    50    20    65 1   
    51    20    66 1   
    52    21    22 1   
    53    21    37 1   
    54    21    67 1   
    55    22    23 1   
    56    22    68 1   
    57    23    24 2   
    58    23    25 2   
    59    23    26 1   
    60    26    27 ar  
    61    26    36 ar  
    62    27    28 ar  
    63    27    69 1   
    64    28    29 ar  
    65    28    70 1   
    66    29    30 ar  
    67    29    35 ar  
    68    30    31 ar  
    69    30    71 1   
    70    31    32 1   
    71    31    33 ar  
    72    33    34 ar  
    73    33    72 1   
    74    34    35 ar  
    75    34    73 1   
    76    35    36 ar  
    77    36    74 1   
    78    37    38 2   
@<TRIPOS>SUBSTRUCTURE
     1 44I         1 TEMP              0 ****  ****    0 ROOT
