@<TRIPOS>MOLECULE
44J
   69    73     1     0     0
SMALL
bcc


@<TRIPOS>ATOM
      1 CAO          0.0000     0.0000     0.0000 c3         1 44J       0.089700
      2 CBA          2.7710    -1.9050     0.3230 c          1 44J       0.623500
      3 CBF          1.5410     0.0000     0.0000 c3         1 44J      -0.001300
      4 CBE          2.5390    -1.1230    12.6760 c3         1 44J      -0.062700
      5 CAZ          0.1880    -2.3370     8.2810 c          1 44J       0.644100
      6 CAM          3.2030    -1.2640    15.0510 c3         1 44J       0.144100
      7 CAK          1.4500    -0.8640     3.6960 c3         1 44J      -0.015400
      8 CAX          2.5660     0.2980    13.2890 c3         1 44J      -0.030400
      9 CAL          2.5710    -2.0630    13.8980 c3         1 44J       0.166100
     10 CAN          1.2530    -1.3350    11.8710 c3         1 44J       0.235800
     11 CBI          2.1250     0.0000     1.4180 c3         1 44J       0.009700
     12 NAU          2.8810    -1.2610     1.4920 ns         1 44J      -0.217900
     13 OAC          3.2990    -2.9780     0.1060 o          1 44J      -0.721500
     14 NAT          2.0250    -1.2600    -0.5840 ns         1 44J      -0.213900
     15 SAY         -0.4100    -0.7510     1.6290 ss         1 44J      -0.410200
     16 CBH          1.0310    -0.0010     2.5030 c3         1 44J       0.065400
     17 CAI          0.4030    -0.7440     4.8050 c3         1 44J      -0.035400
     18 CAH          0.8220    -1.6070     5.9970 c3         1 44J      -0.015400
     19 CAJ         -0.2250    -1.4870     7.1060 c3         1 44J      -0.100400
     20 OAB          1.2180    -2.9760     8.2340 o          1 44J      -0.601100
     21 NAV         -0.5880    -2.3880     9.3820 ns         1 44J      -0.322300
     22 SBK         -0.1350    -3.3220    10.6720 s6         1 44J       1.116500
     23 OAD         -1.1280    -3.1370    11.6700 o          1 44J      -0.563800
     24 OAE          0.2090    -4.5950    10.1440 o          1 44J      -0.563800
     25 NAW          1.2650    -2.6740    11.2780 n7         1 44J      -0.573100
     26 OAL          1.2440    -2.4590    14.2470 oh         1 44J      -0.551800
     27 OAM          2.2770    -1.1510    16.1330 oh         1 44J      -0.564800
     28 CBG          3.5320     0.1350    14.4890 c3         1 44J      -0.069000
     29 N9           3.2770     1.1660    15.4970 na         1 44J       0.232000
     30 C8           2.0880     1.4090    16.1200 cc         1 44J       0.268700
     31 N7           2.2190     2.3960    16.9580 nd         1 44J      -0.505100
     32 C5           3.4960     2.8470    16.9270 ca         1 44J      -0.225200
     33 C4           4.1910     2.0600    15.9930 ca         1 44J       0.245800
     34 N3           5.4800     2.3010    15.7790 nb         1 44J      -0.675000
     35 C2           6.1010     3.2610    16.4320 ca         1 44J       0.674900
     36 N1           5.4920     4.0230    17.3200 nb         1 44J      -0.724000
     37 C6           4.2010     3.8630    17.5950 ca         1 44J       0.589200
     38 N6           3.5710     4.6670    18.5280 nv         1 44J      -0.518500
     39 H1          -0.3190    -0.7000    -0.7630 h1         1 44J       0.065700
     40 H2          -0.3190     1.0350     0.0370 h1         1 44J       0.065700
     41 H3           1.9180     0.8450    -0.5630 h1         1 44J       0.039700
     42 H4           3.4120    -1.2830    12.0550 hc         1 44J       0.038700
     43 H5           4.1120    -1.7520    15.3830 h1         1 44J       0.012700
     44 H6           1.5290    -1.8980     3.3840 hc         1 44J       0.034200
     45 H7           2.4100    -0.5240     4.0670 hc         1 44J       0.034200
     46 H9           1.5790     0.5860    13.6300 hc         1 44J       0.036200
     47 H10          3.1770    -2.9330    13.6780 h1         1 44J       0.005700
     48 H11          1.1930    -0.5920    11.0850 h1         1 44J       0.024200
     49 H12          0.3960    -1.2370    12.5270 h1         1 44J       0.024200
     50 H13          2.7890     0.8450     1.5520 h1         1 44J       0.039700
     51 H14          3.3960    -1.5840     2.2870 hn         1 44J       0.222500
     52 H15          1.8300    -1.5840    -1.5110 hn         1 44J       0.215500
     53 H16          0.8030     1.0120     2.8150 h1         1 44J       0.058700
     54 H17          0.3240     0.2900     5.1180 hc         1 44J       0.023200
     55 H18         -0.5570    -1.0830     4.4340 hc         1 44J       0.023200
     56 H19          0.9000    -2.6420     5.6840 hc         1 44J       0.031700
     57 H20          1.7820    -1.2690     6.3680 hc         1 44J       0.031700
     58 H21         -0.3030    -0.4530     7.4190 hc         1 44J       0.033200
     59 H22         -1.1850    -1.8260     6.7350 hc         1 44J       0.033200
     60 H23         -1.4500    -1.8820     9.4100 hn         1 44J       0.233500
     61 H24          2.1230    -3.1840    11.2090 hn         1 44J       0.358800
     62 H25          1.2690    -3.2970    14.6790 ho         1 44J       0.392000
     63 H26          2.4960    -1.7790    16.8020 ho         1 44J       0.396000
     64 H27          4.5610     0.1730    14.1520 h1         1 44J       0.070700
     65 H28          1.1700     0.8620    15.9420 h5         1 44J       0.050800
     66 H29          7.1550     3.4250    16.2390 h5         1 44J      -0.005900
     67 H30          2.6260     4.9600    18.3780 hn         1 44J       0.275800
     68 H31          4.0610     4.9580    19.3500 hn         1 44J       0.275800
     69 H8           2.9590     1.0140    12.5770 hc         1 44J       0.036200
@<TRIPOS>BOND
     1     1     3 1   
     2     1    15 1   
     3     1    39 1   
     4     1    40 1   
     5     2    12 1   
     6     2    13 2   
     7     2    14 1   
     8     3    11 1   
     9     3    14 1   
    10     3    41 1   
    11     4     8 1   
    12     4     9 1   
    13     4    10 1   
    14     4    42 1   
    15     5    19 1   
    16     5    20 2   
    17     5    21 1   
    18     6     9 1   
    19     6    27 1   
    20     6    28 1   
    21     6    43 1   
    22     7    16 1   
    23     7    17 1   
    24     7    44 1   
    25     7    45 1   
    26     8    28 1   
    27     8    46 1   
    28     8    69 1   
    29     9    26 1   
    30     9    47 1   
    31    10    25 1   
    32    10    48 1   
    33    10    49 1   
    34    11    12 1   
    35    11    16 1   
    36    11    50 1   
    37    12    51 1   
    38    14    52 1   
    39    15    16 1   
    40    16    53 1   
    41    17    18 1   
    42    17    54 1   
    43    17    55 1   
    44    18    19 1   
    45    18    56 1   
    46    18    57 1   
    47    19    58 1   
    48    19    59 1   
    49    21    22 1   
    50    21    60 1   
    51    22    23 2   
    52    22    24 2   
    53    22    25 1   
    54    25    61 1   
    55    26    62 1   
    56    27    63 1   
    57    28    29 1   
    58    28    64 1   
    59    29    30 1   
    60    29    33 1   
    61    30    31 2   
    62    30    65 1   
    63    31    32 1   
    64    32    33 ar  
    65    32    37 ar  
    66    33    34 ar  
    67    34    35 ar  
    68    35    36 ar  
    69    35    66 1   
    70    36    37 ar  
    71    37    38 1   
    72    38    67 1   
    73    38    68 1   
@<TRIPOS>SUBSTRUCTURE
     1 44J         1 TEMP              0 ****  ****    0 ROOT
