@<TRIPOS>MOLECULE
molecule
   69    73     1     0     0
SMALL
bcc


@<TRIPOS>ATOM
      1 CAO          0.0000     0.0000     0.0000 c3         1 44J       0.016700
      2 CBA          2.7710    -1.9050     0.3230 c          1 44J       0.819500
      3 CBF          1.5410     0.0000     0.0000 c3         1 44J       0.083700
      4 CBE          2.5390    -1.1230    12.6760 c3         1 44J      -0.077700
      5 CAZ          0.1880    -2.3370     8.2810 c          1 44J       0.679100
      6 CAM          3.2030    -1.2640    15.0510 c3         1 44J       0.099100
      7 CAK          1.4500    -0.8640     3.6960 c3         1 44J      -0.063400
      8 CAX          2.5660     0.2980    13.2890 c3         1 44J      -0.089400
      9 CAL          2.5710    -2.0630    13.8980 c3         1 44J       0.125100
     10 CAN          1.2530    -1.3350    11.8710 c3         1 44J       0.248800
     11 CBI          2.1250     0.0000     1.4180 c3         1 44J       0.092700
     12 NAU          2.8810    -1.2610     1.4920 ns         1 44J      -0.595900
     13 OAC          3.2990    -2.9780     0.1060 o          1 44J      -0.677500
     14 NAT          2.0250    -1.2600    -0.5840 ns         1 44J      -0.598900
     15 SAY         -0.4100    -0.7510     1.6290 ss         1 44J      -0.362200
     16 CBH          1.0310    -0.0010     2.5030 c3         1 44J       0.029400
     17 CAI          0.4030    -0.7440     4.8050 c3         1 44J      -0.086400
     18 CAH          0.8220    -1.6070     5.9970 c3         1 44J      -0.069400
     19 CAJ         -0.2250    -1.4870     7.1060 c3         1 44J      -0.159400
     20 OAB          1.2180    -2.9760     8.2340 o          1 44J      -0.564100
     21 NAV         -0.5880    -2.3880     9.3820 ns         1 44J      -0.669300
     22 SBK         -0.1350    -3.3220    10.6720 s6         1 44J       1.535500
     23 OAD         -1.1280    -3.1370    11.6700 o          1 44J      -0.624300
     24 OAE          0.2090    -4.5950    10.1440 o          1 44J      -0.624300
     25 NAW          1.2650    -2.6740    11.2780 n7         1 44J      -0.909100
     26 OAL          1.2440    -2.4590    14.2470 oh         1 44J      -0.572800
     27 OAM          2.2770    -1.1510    16.1330 oh         1 44J      -0.583800
     28 CBG          3.5320     0.1350    14.4890 c3         1 44J       0.059000
     29 N9           3.2770     1.1660    15.4970 na         1 44J      -0.240000
     30 C8           2.0880     1.4090    16.1200 cc         1 44J       0.456700
     31 N7           2.2190     2.3960    16.9580 nd         1 44J      -0.596100
     32 C5           3.4960     2.8470    16.9270 ca         1 44J      -0.192200
     33 C4           4.1910     2.0600    15.9930 ca         1 44J       0.452800
     34 N3           5.4800     2.3010    15.7790 nb         1 44J      -0.792000
     35 C2           6.1010     3.2610    16.4320 ca         1 44J       0.725900
     36 N1           5.4920     4.0230    17.3200 nb         1 44J      -0.818000
     37 C6           4.2010     3.8630    17.5950 ca         1 44J       0.781200
     38 N6           3.5710     4.6670    18.5280 nv         1 44J      -1.008500
     39 H1          -0.3190    -0.7000    -0.7630 h1         1 44J       0.091200
     40 H2          -0.3190     1.0350     0.0370 h1         1 44J       0.091200
     41 H3           1.9180     0.8450    -0.5630 h1         1 44J       0.067700
     42 H4           3.4120    -1.2830    12.0550 hc         1 44J       0.066700
     43 H5           4.1120    -1.7520    15.3830 h1         1 44J       0.048700
     44 H6           1.5290    -1.8980     3.3840 hc         1 44J       0.061200
     45 H7           2.4100    -0.5240     4.0670 hc         1 44J       0.061200
     46 H9           1.5790     0.5860    13.6300 hc         1 44J       0.067700
     47 H10          3.1770    -2.9330    13.6780 h1         1 44J       0.039700
     48 H11          1.1930    -0.5920    11.0850 h1         1 44J       0.055700
     49 H12          0.3960    -1.2370    12.5270 h1         1 44J       0.055700
     50 H13          2.7890     0.8450     1.5520 h1         1 44J       0.067700
     51 H14          3.3960    -1.5840     2.2870 hn         1 44J       0.364500
     52 H15          1.8300    -1.5840    -1.5110 hn         1 44J       0.362500
     53 H16          0.8030     1.0120     2.8150 h1         1 44J       0.076700
     54 H17          0.3240     0.2900     5.1180 hc         1 44J       0.048200
     55 H18         -0.5570    -1.0830     4.4340 hc         1 44J       0.048200
     56 H19          0.9000    -2.6420     5.6840 hc         1 44J       0.061200
     57 H20          1.7820    -1.2690     6.3680 hc         1 44J       0.061200
     58 H21         -0.3030    -0.4530     7.4190 hc         1 44J       0.067200
     59 H22         -1.1850    -1.8260     6.7350 hc         1 44J       0.067200
     60 H23         -1.4500    -1.8820     9.4100 hn         1 44J       0.345500
     61 H24          2.1230    -3.1840    11.2090 hn         1 44J       0.459800
     62 H25          1.2690    -3.2970    14.6790 ho         1 44J       0.406000
     63 H26          2.4960    -1.7790    16.8020 ho         1 44J       0.410000
     64 H27          4.5610     0.1730    14.1520 h1         1 44J       0.099700
     65 H28          1.1700     0.8620    15.9420 h5         1 44J       0.096800
     66 H29          7.1550     3.4250    16.2390 h5         1 44J       0.059100
     67 H30          2.6260     4.9600    18.3780 hn         1 44J       0.447800
     68 H31          4.0610     4.9580    19.3500 hn         1 44J       0.447800
     69 H8           2.9590     1.0140    12.5770 hc         1 44J       0.067700
@<TRIPOS>BOND
     1    23    22 2
     2    24    22 2
     3    22    25 1
     4    22    21 1
     5    25    10 1
     6    21     5 1
     7    10     4 1
     8     4     9 1
     9     4     8 1
    10     5    20 2
    11     5    19 1
    12     9     6 1
    13     9    26 1
    14     8    28 1
    15     6    28 1
    16     6    27 1
    17    19    18 1
    18    28    29 1
    19    18    17 1
    20    29    33 1
    21    29    30 1
    22    34    33 ar
    23    34    35 ar
    24    17     7 1
    25    33    32 ar
    26    30    31 2
    27    35    36 ar
    28    32    31 1
    29    32    37 ar
    30     7    16 1
    31    36    37 ar
    32    12    11 1
    33    12     2 1
    34    11    16 1
    35    11     3 1
    36    37    38 1
    37    16    15 1
    38     2    13 2
    39     2    14 1
    40     3    14 1
    41     3     1 1
    42    15     1 1
    43     1    39 1
    44     1    40 1
    45     3    41 1
    46     4    42 1
    47     6    43 1
    48     7    44 1
    49     7    45 1
    50     8    69 1
    51     8    46 1
    52     9    47 1
    53    10    48 1
    54    10    49 1
    55    11    50 1
    56    12    51 1
    57    14    52 1
    58    16    53 1
    59    17    54 1
    60    17    55 1
    61    18    56 1
    62    18    57 1
    63    19    58 1
    64    19    59 1
    65    21    60 1
    66    25    61 1
    67    26    62 1
    68    27    63 1
    69    28    64 1
    70    30    65 1
    71    35    66 1
    72    38    67 1
    73    38    68 1
@<TRIPOS>SUBSTRUCTURE
     1 44J         1 TEMP              0 ****  ****    0 ROOT
