@<TRIPOS>MOLECULE
44K
   67    71     1     0     0
SMALL
bcc


@<TRIPOS>ATOM
      1 CBI          0.0000     0.0000     0.0000 c3         1 44K       0.009700
      2 NAU          1.4720     0.0000     0.0000 ns         1 44K      -0.218900
      3 CBA          1.9080     0.0000     1.2670 c          1 44K       0.623500
      4 OAC          3.0870    -0.0000     1.5620 o          1 44K      -0.721500
      5 NAT          0.9270     0.0000     2.1790 ns         1 44K      -0.211900
      6 CBF         -0.3720    -0.0000     1.4880 c3         1 44K       0.008700
      7 CAO         -1.1640     1.2580     1.8940 c3         1 44K       0.088700
      8 SAY         -0.6490     2.4880     0.6270 ss         1 44K      -0.400200
      9 CBH         -0.5060     1.2540    -0.7390 c3         1 44K       0.068400
     10 CAK          0.5070     1.7190    -1.7870 c3         1 44K      -0.017400
     11 CAI         -0.0220     2.9710    -2.4890 c3         1 44K      -0.035400
     12 CAH          0.9910     3.4350    -3.5360 c3         1 44K      -0.015400
     13 CAJ          0.4630     4.6880    -4.2380 c3         1 44K      -0.099400
     14 CAZ          1.4620     5.1450    -5.2700 c          1 44K       0.644100
     15 OAB          2.4950     4.5300    -5.4280 o          1 44K      -0.598100
     16 NAV          1.2070     6.2370    -6.0160 ns         1 44K      -0.322300
     17 SBK          2.3040     6.7400    -7.1500 s6         1 44K       1.115500
     18 OAD          1.7350     7.8790    -7.7820 o          1 44K      -0.563800
     19 OAE          3.5690     6.7620    -6.5020 o          1 44K      -0.563800
     20 NAW          2.3910     5.5580    -8.3070 n7         1 44K      -0.579100
     21 CAN          1.2220     5.2610    -9.1380 c3         1 44K       0.233800
     22 CBE          1.6550     4.4260   -10.3440 c3         1 44K      -0.062700
     23 CAX          0.4310     4.0400   -11.2140 c3         1 44K      -0.035400
     24 CAL          2.5170     5.2680   -11.3160 c3         1 44K      -0.022400
     25 CAM          2.3550     4.5620   -12.6770 c3         1 44K      -0.041400
     26 CBG          1.0270     3.7790   -12.6120 c3         1 44K      -0.063000
     27 N9           0.1100     4.2610   -13.6470 na         1 44K       0.217000
     28 C8          -0.3450     5.5380   -13.7910 cc         1 44K       0.237700
     29 N7          -1.1430     5.6130   -14.8150 nd         1 44K      -0.489100
     30 C5          -1.2530     4.3920   -15.3920 ca         1 44K      -0.231200
     31 C4          -0.4460     3.5110   -14.6530 ca         1 44K       0.257800
     32 N3          -0.3790     2.2350   -15.0190 nb         1 44K      -0.670000
     33 C2          -1.0570     1.7990   -16.0590 ca         1 44K       0.679900
     34 N1          -1.8280     2.5900   -16.7850 nb         1 44K      -0.722000
     35 C6          -1.9550     3.8800   -16.4960 ca         1 44K       0.593200
     36 N6          -2.7660     4.7000   -17.2630 nv         1 44K      -0.519500
     37 H1          -0.3740    -0.8960    -0.4800 h1         1 44K       0.038700
     38 H2           2.0530    -0.0030    -0.8150 hn         1 44K       0.222500
     39 H3           1.0560     0.0000     3.1720 hn         1 44K       0.215500
     40 H4          -0.9300    -0.8950     1.7360 h1         1 44K       0.038700
     41 H5          -0.8760     1.5870     2.8850 h1         1 44K       0.054700
     42 H6          -2.2300     1.0740     1.8370 h1         1 44K       0.054700
     43 H7          -1.4750     1.0680    -1.1880 h1         1 44K       0.058700
     44 H8           1.4480     1.9480    -1.3010 hc         1 44K       0.033700
     45 H9           0.6590     0.9330    -2.5160 hc         1 44K       0.033700
     46 H10         -0.9630     2.7420    -2.9730 hc         1 44K       0.023700
     47 H11         -0.1730     3.7570    -1.7590 hc         1 44K       0.023700
     48 H12          1.9330     3.6630    -3.0510 hc         1 44K       0.032200
     49 H13          1.1420     2.6490    -4.2660 hc         1 44K       0.032200
     50 H14         -0.4780     4.4600    -4.7230 hc         1 44K       0.033200
     51 H15          0.3120     5.4740    -3.5090 hc         1 44K       0.033200
     52 H16          0.3720     6.7670    -5.8590 hn         1 44K       0.233500
     53 H17          3.2320     5.0280    -8.4180 hn         1 44K       0.365800
     54 H18          0.7770     6.1870    -9.4810 h1         1 44K       0.014700
     55 H19          0.4970     4.7050    -8.5560 h1         1 44K       0.014700
     56 H20          2.1920     3.5390   -10.0310 hc         1 44K       0.041700
     57 H21         -0.0370     3.1420   -10.8290 hc         1 44K       0.030200
     58 H22         -0.2770     4.8590   -11.2520 hc         1 44K       0.030200
     59 H23          3.5550     5.2570   -11.0060 hc         1 44K       0.026700
     60 H24          2.1420     6.2830   -11.3710 hc         1 44K       0.026700
     61 H25          2.3130     5.2960   -13.4730 hc         1 44K       0.030200
     62 H26          3.1800     3.8780   -12.8390 hc         1 44K       0.030200
     63 H27          1.2160     2.7210   -12.7400 h1         1 44K       0.068700
     64 H28         -0.0800     6.3680   -13.1470 h5         1 44K       0.034800
     65 H29         -0.9810     0.7530   -16.3290 h5         1 44K      -0.003900
     66 H30         -3.6330     4.3520   -17.6220 hn         1 44K       0.276800
     67 H31         -2.4930     5.6460   -17.4430 hn         1 44K       0.276800
@<TRIPOS>BOND
     1     1     2 1   
     2     1     6 1   
     3     1     9 1   
     4     1    37 1   
     5     2     3 1   
     6     2    38 1   
     7     3     4 2   
     8     3     5 1   
     9     5     6 1   
    10     5    39 1   
    11     6     7 1   
    12     6    40 1   
    13     7     8 1   
    14     7    41 1   
    15     7    42 1   
    16     8     9 1   
    17     9    10 1   
    18     9    43 1   
    19    10    11 1   
    20    10    44 1   
    21    10    45 1   
    22    11    12 1   
    23    11    46 1   
    24    11    47 1   
    25    12    13 1   
    26    12    48 1   
    27    12    49 1   
    28    13    14 1   
    29    13    50 1   
    30    13    51 1   
    31    14    15 2   
    32    14    16 1   
    33    16    17 1   
    34    16    52 1   
    35    17    18 2   
    36    17    19 2   
    37    17    20 1   
    38    20    21 1   
    39    20    53 1   
    40    21    22 1   
    41    21    54 1   
    42    21    55 1   
    43    22    23 1   
    44    22    24 1   
    45    22    56 1   
    46    23    26 1   
    47    23    57 1   
    48    23    58 1   
    49    24    25 1   
    50    24    59 1   
    51    24    60 1   
    52    25    26 1   
    53    25    61 1   
    54    25    62 1   
    55    26    27 1   
    56    26    63 1   
    57    27    28 1   
    58    27    31 1   
    59    28    29 2   
    60    28    64 1   
    61    29    30 1   
    62    30    31 ar  
    63    30    35 ar  
    64    31    32 ar  
    65    32    33 ar  
    66    33    34 ar  
    67    33    65 1   
    68    34    35 ar  
    69    35    36 1   
    70    36    66 1   
    71    36    67 1   
@<TRIPOS>SUBSTRUCTURE
     1 44K         1 TEMP              0 ****  ****    0 ROOT
