@<TRIPOS>MOLECULE
molecule
   67    71     1     0     0
SMALL
bcc


@<TRIPOS>ATOM
      1 CBI          0.0000     0.0000     0.0000 c3         1 44K       0.092700
      2 NAU          1.4720     0.0000     0.0000 ns         1 44K      -0.596900
      3 CBA          1.9080     0.0000     1.2670 c          1 44K       0.820500
      4 OAC          3.0870    -0.0000     1.5620 o          1 44K      -0.677500
      5 NAT          0.9270     0.0000     2.1790 ns         1 44K      -0.596900
      6 CBF         -0.3720    -0.0000     1.4880 c3         1 44K       0.092700
      7 CAO         -1.1640     1.2580     1.8940 c3         1 44K       0.013700
      8 SAY         -0.6490     2.4880     0.6270 ss         1 44K      -0.350200
      9 CBH         -0.5060     1.2540    -0.7390 c3         1 44K       0.030400
     10 CAK          0.5070     1.7190    -1.7870 c3         1 44K      -0.064400
     11 CAI         -0.0220     2.9710    -2.4890 c3         1 44K      -0.086400
     12 CAH          0.9910     3.4350    -3.5360 c3         1 44K      -0.069400
     13 CAJ          0.4630     4.6880    -4.2380 c3         1 44K      -0.159400
     14 CAZ          1.4620     5.1450    -5.2700 c          1 44K       0.679100
     15 OAB          2.4950     4.5300    -5.4280 o          1 44K      -0.562100
     16 NAV          1.2070     6.2370    -6.0160 ns         1 44K      -0.669300
     17 SBK          2.3040     6.7400    -7.1500 s6         1 44K       1.532500
     18 OAD          1.7350     7.8790    -7.7820 o          1 44K      -0.624800
     19 OAE          3.5690     6.7620    -6.5020 o          1 44K      -0.624800
     20 NAW          2.3910     5.5580    -8.3070 n7         1 44K      -0.912100
     21 CAN          1.2220     5.2610    -9.1380 c3         1 44K       0.240800
     22 CBE          1.6550     4.4260   -10.3440 c3         1 44K      -0.085700
     23 CAX          0.4310     4.0400   -11.2140 c3         1 44K      -0.094400
     24 CAL          2.5170     5.2680   -11.3160 c3         1 44K      -0.080400
     25 CAM          2.3550     4.5620   -12.6770 c3         1 44K      -0.102400
     26 CBG          1.0270     3.7790   -12.6120 c3         1 44K       0.055000
     27 N9           0.1100     4.2610   -13.6470 na         1 44K      -0.247000
     28 C8          -0.3450     5.5380   -13.7910 cc         1 44K       0.416700
     29 N7          -1.1430     5.6130   -14.8150 nd         1 44K      -0.580100
     30 C5          -1.2530     4.3920   -15.3920 ca         1 44K      -0.199200
     31 C4          -0.4460     3.5110   -14.6530 ca         1 44K       0.462800
     32 N3          -0.3790     2.2350   -15.0190 nb         1 44K      -0.787000
     33 C2          -1.0570     1.7990   -16.0590 ca         1 44K       0.731900
     34 N1          -1.8280     2.5900   -16.7850 nb         1 44K      -0.817000
     35 C6          -1.9550     3.8800   -16.4960 ca         1 44K       0.785200
     36 N6          -2.7660     4.7000   -17.2630 nv         1 44K      -1.009500
     37 H1          -0.3740    -0.8960    -0.4800 h1         1 44K       0.067700
     38 H2           2.0530    -0.0030    -0.8150 hn         1 44K       0.364500
     39 H3           1.0560     0.0000     3.1720 hn         1 44K       0.362500
     40 H4          -0.9300    -0.8950     1.7360 h1         1 44K       0.067700
     41 H5          -0.8760     1.5870     2.8850 h1         1 44K       0.081200
     42 H6          -2.2300     1.0740     1.8370 h1         1 44K       0.081200
     43 H7          -1.4750     1.0680    -1.1880 h1         1 44K       0.076700
     44 H8           1.4480     1.9480    -1.3010 hc         1 44K       0.061200
     45 H9           0.6590     0.9330    -2.5160 hc         1 44K       0.061200
     46 H10         -0.9630     2.7420    -2.9730 hc         1 44K       0.049200
     47 H11         -0.1730     3.7570    -1.7590 hc         1 44K       0.049200
     48 H12          1.9330     3.6630    -3.0510 hc         1 44K       0.061700
     49 H13          1.1420     2.6490    -4.2660 hc         1 44K       0.061700
     50 H14         -0.4780     4.4600    -4.7230 hc         1 44K       0.067200
     51 H15          0.3120     5.4740    -3.5090 hc         1 44K       0.067200
     52 H16          0.3720     6.7670    -5.8590 hn         1 44K       0.345500
     53 H17          3.2320     5.0280    -8.4180 hn         1 44K       0.466800
     54 H18          0.7770     6.1870    -9.4810 h1         1 44K       0.046200
     55 H19          0.4970     4.7050    -8.5560 h1         1 44K       0.046200
     56 H20          2.1920     3.5390   -10.0310 hc         1 44K       0.068700
     57 H21         -0.0370     3.1420   -10.8290 hc         1 44K       0.060700
     58 H22         -0.2770     4.8590   -11.2520 hc         1 44K       0.060700
     59 H23          3.5550     5.2570   -11.0060 hc         1 44K       0.055700
     60 H24          2.1420     6.2830   -11.3710 hc         1 44K       0.055700
     61 H25          2.3130     5.2960   -13.4730 hc         1 44K       0.062200
     62 H26          3.1800     3.8780   -12.8390 hc         1 44K       0.062200
     63 H27          1.2160     2.7210   -12.7400 h1         1 44K       0.096700
     64 H28         -0.0800     6.3680   -13.1470 h5         1 44K       0.079800
     65 H29         -0.9810     0.7530   -16.3290 h5         1 44K       0.061100
     66 H30         -3.6330     4.3520   -17.6220 hn         1 44K       0.448300
     67 H31         -2.4930     5.6460   -17.4430 hn         1 44K       0.448300
@<TRIPOS>BOND
     1     7     8 1   
     2     7     6 1   
     3     8     9 1   
     4     5     6 1   
     5     5     3 1   
     6    36    35 1   
     7     6     1 1   
     8     4     3 2   
     9     3     2 1   
    10     9     1 1   
    11     9    10 1   
    12    35    34 ar  
    13    35    30 ar  
    14     1     2 1   
    15    34    33 ar  
    16    10    11 1   
    17    29    30 1   
    18    29    28 2   
    19    30    31 ar  
    20    33    32 ar  
    21    28    27 1   
    22    11    12 1   
    23    31    32 ar  
    24    31    27 1   
    25    27    26 1   
    26    12    13 1   
    27    26    25 1   
    28    26    23 1   
    29    13    14 1   
    30    25    24 1   
    31    23    22 1   
    32    15    14 2   
    33    24    22 1   
    34    14    16 1   
    35    22    21 1   
    36    21    20 1   
    37    16    17 1   
    38    20    17 1   
    39    17    18 2   
    40    17    19 2   
    41     1    37 1   
    42     2    38 1   
    43     5    39 1   
    44     6    40 1   
    45     7    41 1   
    46     7    42 1   
    47     9    43 1   
    48    10    44 1   
    49    10    45 1   
    50    11    46 1   
    51    11    47 1   
    52    12    48 1   
    53    12    49 1   
    54    13    50 1   
    55    13    51 1   
    56    16    52 1   
    57    20    53 1   
    58    21    54 1   
    59    21    55 1   
    60    22    56 1   
    61    23    57 1   
    62    23    58 1   
    63    24    59 1   
    64    24    60 1   
    65    25    61 1   
    66    25    62 1   
    67    26    63 1   
    68    28    64 1   
    69    33    65 1   
    70    36    66 1   
    71    36    67 1   
@<TRIPOS>SUBSTRUCTURE
     1 44K         1 TEMP              0 ****  ****    0 ROOT
