@<TRIPOS>MOLECULE
molecule
   66    70     1     0     0
SMALL
bcc


@<TRIPOS>ATOM
      1 C4           0.0000     0.0000     0.0000 ca         1 44L       0.477800
      2 N6           3.4510    -0.0050    -1.3020 nv         1 44L      -0.982500
      3 C5           1.4050     0.0000     0.0000 ca         1 44L      -0.212200
      4 N9          -0.3780     0.0040     1.3190 na         1 44L      -0.262000
      5 C8           0.7600     0.0020     2.0710 cc         1 44L       0.425700
      6 CBI          6.8390     3.6910     8.4840 c3         1 44L       0.092700
      7 NAU          6.2650     4.9830     8.0780 ns         1 44L      -0.596900
      8 CBA          6.8020     5.9550     8.8290 c          1 44L       0.819500
      9 OAC          6.5050     7.1280     8.7070 o          1 44L      -0.676500
     10 NAT          7.6930     5.5170     9.7290 ns         1 44L      -0.596900
     11 CBF          7.8140     4.0550     9.6110 c3         1 44L       0.092700
     12 CAO          7.4280     3.4040    10.9530 c3         1 44L       0.013700
     13 SAY          5.6200     3.1270    10.7640 ss         1 44L      -0.351200
     14 CBH          5.7070     2.7580     8.9560 c3         1 44L       0.031400
     15 CAK          4.3870     3.1090     8.2670 c3         1 44L      -0.065400
     16 CAI          3.2840     2.1740     8.7710 c3         1 44L      -0.086400
     17 CAH          1.9640     2.5260     8.0810 c3         1 44L      -0.069400
     18 CAJ          0.8620     1.5910     8.5850 c3         1 44L      -0.158400
     19 CAZ         -0.4380     1.9370     7.9050 c          1 44L       0.676100
     20 OAB         -0.4790     2.8420     7.0990 o          1 44L      -0.554100
     21 NAV         -1.5550     1.2410     8.1950 ns         1 44L      -0.671300
     22 SBK         -2.9840     1.6210     7.4490 s6         1 44L       1.534500
     23 OAD         -3.9490     0.6980     7.9350 o          1 44L      -0.622800
     24 OAE         -3.1320     3.0300     7.5600 o          1 44L      -0.622800
     25 CAN         -2.5860    -0.0820     5.3870 c3         1 44L       0.244800
     26 CBE         -2.8160    -0.1670     3.8760 c3         1 44L       0.127100
     27 OAX         -1.7760     0.5390     3.1640 os         1 44L      -0.407600
     28 CAL         -2.6690    -1.6280     3.3830 c3         1 44L       0.086100
     29 OAL         -3.9040    -2.3360     3.5100 oh         1 44L      -0.569800
     30 CAM         -2.2950    -1.4320     1.8940 c3         1 44L       0.105600
     31 CBG         -1.7530     0.0120     1.8270 c3         1 44L       0.236800
     32 N7           1.8050     0.0000     1.2940 nd         1 44L      -0.585100
     33 N3          -0.6460     0.0010    -1.1610 nb         1 44L      -0.794000
     34 C2           0.0170    -0.0040    -2.2980 ca         1 44L       0.747900
     35 N1           1.3370    -0.0090    -2.3490 nb         1 44L      -0.834000
     36 C6           2.0690     0.0010    -1.2400 ca         1 44L       0.791200
     37 F1          -3.4270    -1.5650     1.0830 f          1 44L      -0.204300
     38 H1           3.9120     0.0440    -2.1890 hn         1 44L       0.451300
     39 H2           3.9900    -0.0640    -0.4600 hn         1 44L       0.451300
     40 H3           0.7900     0.0010     3.1540 h5         1 44L       0.084800
     41 H5           5.5850     5.1150     7.3560 hn         1 44L       0.365500
     42 H6           8.1960     6.0910    10.3760 hn         1 44L       0.362500
     43 H7           8.8260     3.7820     9.3360 h1         1 44L       0.067700
     44 H8           7.6270     4.0790    11.7770 h1         1 44L       0.081200
     45 H9           7.9470     2.4620    11.0850 h1         1 44L       0.081200
     46 H10          5.9720     1.7210     8.7900 h1         1 44L       0.076700
     47 H11          4.4970     2.9930     7.1960 hc         1 44L       0.061700
     48 H12          4.1220     4.1350     8.4940 hc         1 44L       0.061700
     49 H13          3.5490     1.1490     8.5430 hc         1 44L       0.048700
     50 H14          3.1740     2.2900     9.8420 hc         1 44L       0.048700
     51 H15          1.7000     3.5510     8.3090 hc         1 44L       0.062200
     52 H16          2.0750     2.4100     7.0100 hc         1 44L       0.062200
     53 H17          1.1270     0.5650     8.3580 hc         1 44L       0.066200
     54 H18          0.7510     1.7070     9.6560 hc         1 44L       0.066200
     55 H19         -1.5300     0.5240     8.8940 hn         1 44L       0.344500
     56 H21         -3.2830    -0.7380     5.8950 h1         1 44L       0.056200
     57 H22         -1.5720    -0.3860     5.6160 h1         1 44L       0.056200
     58 H23         -3.7900     0.2260     3.6110 h1         1 44L       0.093700
     59 H24         -1.8710    -2.1330     3.9140 h1         1 44L       0.058700
     60 H25         -3.7280    -3.2450     3.6900 ho         1 44L       0.415000
     61 H26         -1.5260    -2.1380     1.6010 h1         1 44L       0.083700
     62 H27         -2.3850     0.6130     1.1850 h2         1 44L       0.113700
     63 H28         -0.5400    -0.0120    -3.2270 h5         1 44L       0.064100
     64 NAW         -2.7960     1.2960     5.8360 n7         1 44L      -0.911100
     65 H4           7.3740     3.2420     7.6560 h1         1 44L       0.067700
     66 H20         -2.8620     2.0360     5.1660 hn         1 44L       0.475800
@<TRIPOS>BOND
     1     2    36 1   
     2    36    35 ar  
     3    36     3 ar  
     4    12    13 1   
     5    12    11 1   
     6    13    14 1   
     7    35    34 ar  
     8    32     3 1   
     9    32     5 2   
    10     3     1 ar  
    11    10    11 1   
    12    10     8 1   
    13     9     8 2   
    14    11     6 1   
    15    34    33 ar  
    16     5     4 1   
    17     8     7 1   
    18     1    33 ar  
    19     1     4 1   
    20    14     6 1   
    21    14    15 1   
    22     4    31 1   
    23     6     7 1   
    24    15    16 1   
    25    31    30 1   
    26    31    27 1   
    27    30    28 1   
    28    30    37 1   
    29    16    17 1   
    30    17    18 1   
    31    28    29 1   
    32    28    26 1   
    33    27    26 1   
    34    26    25 1   
    35    25    64 1   
    36    18    19 1   
    37    20    19 2   
    38    19    21 1   
    39    64    22 1   
    40    21    22 1   
    41    22    23 2   
    42    22    24 2   
    43     2    38 1   
    44     2    39 1   
    45     5    40 1   
    46     6    65 1   
    47     7    41 1   
    48    10    42 1   
    49    11    43 1   
    50    12    44 1   
    51    12    45 1   
    52    14    46 1   
    53    15    47 1   
    54    15    48 1   
    55    16    49 1   
    56    16    50 1   
    57    17    51 1   
    58    17    52 1   
    59    18    53 1   
    60    18    54 1   
    61    21    55 1   
    62    64    66 1   
    63    25    56 1   
    64    25    57 1   
    65    26    58 1   
    66    28    59 1   
    67    29    60 1   
    68    30    61 1   
    69    31    62 1   
    70    34    63 1   
@<TRIPOS>SUBSTRUCTURE
     1 44L         1 TEMP              0 ****  ****    0 ROOT
