@<TRIPOS>MOLECULE
44O
   66    70     1     0     0
SMALL
bcc


@<TRIPOS>ATOM
      1 C4           0.0000     0.0000     0.0000 ca         1 44O       0.262800
      2 C5           1.4050     0.0000     0.0000 ca         1 44O      -0.226200
      3 C6           2.0680     0.0000     1.2390 ca         1 44O       0.591200
      4 C8           0.7600    -0.0060    -2.0700 cc         1 44O       0.260700
      5 N1           1.3360    -0.0020     2.3490 nb         1 44O      -0.720000
      6 N3          -0.6470    -0.0020     1.1610 nb         1 44O      -0.670000
      7 CBI          7.6010    -2.7780    -5.9280 c3         1 44O       0.010700
      8 NAU          7.3080    -3.9820    -5.1340 ns         1 44O      -0.217900
      9 CBA          8.2060    -4.9310    -5.4340 c          1 44O       0.623500
     10 OAC          8.2010    -6.0330    -4.9220 o          1 44O      -0.721500
     11 NAT          9.1110    -4.5530    -6.3480 ns         1 44O      -0.212900
     12 CBF          8.8300    -3.1680    -6.7560 c3         1 44O       0.008700
     13 CAO          8.5530    -3.1320    -8.2720 c3         1 44O       0.088700
     14 SAY          6.7310    -3.3740    -8.3560 ss         1 44O      -0.399200
     15 CBH          6.3810    -2.4430    -6.8090 c3         1 44O       0.065400
     16 CAK          5.0880    -2.9400    -6.1580 c3         1 44O      -0.016400
     17 CAI          3.8890    -2.4850    -6.9930 c3         1 44O      -0.034400
     18 CAH          2.5970    -2.9810    -6.3420 c3         1 44O      -0.016400
     19 CAJ          1.3980    -2.5260    -7.1760 c3         1 44O      -0.098400
     20 CAZ          0.1250    -3.0150    -6.5350 c          1 44O       0.639100
     21 OAB          0.1720    -3.6650    -5.5110 o          1 44O      -0.576100
     22 NAV         -1.0660    -2.7320    -7.0990 ns         1 44O      -0.350300
     23 SBK         -2.4650    -3.2690    -6.3940 s6         1 44O       1.364100
     24 OAD         -3.5310    -2.7840    -7.1980 o          1 44O      -0.583800
     25 OAE         -2.2690    -4.6490    -6.1140 o          1 44O      -0.583800
     26 CAN         -2.9820    -1.2000    -5.1390 c3         1 44O       0.252400
     27 CBE         -3.0750    -0.6010    -3.7350 c3         1 44O       0.184100
     28 OAX         -1.7750    -0.5820    -3.1370 os         1 44O      -0.411600
     29 CAL         -3.6110     0.8300    -3.8220 c3         1 44O       0.105800
     30 NAS         -3.6250     1.4260    -2.4790 n7         1 44O      -0.562200
     31 CAM         -2.2750     1.4290    -1.8970 c3         1 44O       0.089800
     32 CBG         -1.7510    -0.0080    -1.8270 c3         1 44O       0.173800
     33 N9          -0.3780    -0.0050    -1.3190 na         1 44O       0.209000
     34 N7           1.8050     0.0020    -1.2950 nd         1 44O      -0.500100
     35 C2           0.0170    -0.0030     2.2980 ca         1 44O       0.681900
     36 N6           3.4510     0.0000     1.3020 nv         1 44O      -0.516500
     37 H1           0.7910    -0.0140    -3.1530 h5         1 44O       0.035800
     38 H3           6.5620    -4.0750    -4.4740 hn         1 44O       0.223500
     39 H4           9.8560    -5.1220    -6.6980 hn         1 44O       0.215500
     40 H5           9.6680    -2.5270    -6.5110 h1         1 44O       0.037700
     41 H6           8.8310    -2.1720    -8.6890 h1         1 44O       0.054700
     42 H7           9.0700    -3.9410    -8.7740 h1         1 44O       0.054700
     43 H8           6.3350    -1.3790    -7.0080 h1         1 44O       0.058700
     44 H9           5.1020    -4.0220    -6.1070 hc         1 44O       0.035700
     45 H10          5.0070    -2.5320    -5.1580 hc         1 44O       0.035700
     46 H11          3.8750    -1.4030    -7.0450 hc         1 44O       0.021700
     47 H12          3.9700    -2.8930    -7.9940 hc         1 44O       0.021700
     48 H13          2.6120    -4.0630    -6.2900 hc         1 44O       0.034200
     49 H14          2.5170    -2.5730    -5.3420 hc         1 44O       0.034200
     50 H15          1.4780    -2.9350    -8.1760 hc         1 44O       0.031200
     51 H16          1.3840    -1.4440    -7.2280 hc         1 44O       0.031200
     52 H17         -1.1030    -2.2300    -7.9640 hn         1 44O       0.233500
     53 H18         -2.2500    -0.6510    -5.7180 h1         1 44O       0.019700
     54 H19         -3.9490    -1.1340    -5.6240 h1         1 44O       0.019700
     55 H20         -3.7420    -1.1980    -3.1250 h1         1 44O       0.041700
     56 H21         -4.6190     0.8130    -4.2200 h1         1 44O       0.018700
     57 H22         -2.9700     1.4160    -4.4700 h1         1 44O       0.018700
     58 H23         -3.9660     2.3650    -2.5340 hn         1 44O       0.263800
     59 H25         -2.3140     1.8470    -0.8980 h1         1 44O       0.028200
     60 H26         -1.6160     2.0230    -2.5180 h1         1 44O       0.028200
     61 H27         -2.3840    -0.5900    -1.1690 h2         1 44O       0.056700
     62 H28         -0.5400    -0.0040     3.2270 h5         1 44O      -0.003900
     63 H29          3.9190     0.5130     2.0230 hn         1 44O       0.276300
     64 H30          3.9830    -0.5110     0.6260 hn         1 44O       0.276300
     65 OAW         -2.5880    -2.5700    -5.0480 os         1 44O      -0.435500
     66 H2           7.8340    -1.9450    -5.2760 h1         1 44O       0.039700
@<TRIPOS>BOND
     1     1     2 ar  
     2     1     6 ar  
     3     1    33 1   
     4     2     3 ar  
     5     2    34 1   
     6     3     5 ar  
     7     3    36 1   
     8     4    33 1   
     9     4    34 2   
    10     4    37 1   
    11     5    35 ar  
    12     6    35 ar  
    13     7     8 1   
    14     7    12 1   
    15     7    15 1   
    16     7    66 1   
    17     8     9 1   
    18     8    38 1   
    19     9    10 2   
    20     9    11 1   
    21    11    12 1   
    22    11    39 1   
    23    12    13 1   
    24    12    40 1   
    25    13    14 1   
    26    13    41 1   
    27    13    42 1   
    28    14    15 1   
    29    15    16 1   
    30    15    43 1   
    31    16    17 1   
    32    16    44 1   
    33    16    45 1   
    34    17    18 1   
    35    17    46 1   
    36    17    47 1   
    37    18    19 1   
    38    18    48 1   
    39    18    49 1   
    40    19    20 1   
    41    19    50 1   
    42    19    51 1   
    43    20    21 2   
    44    20    22 1   
    45    22    23 1   
    46    22    52 1   
    47    23    24 2   
    48    23    25 2   
    49    23    65 1   
    50    26    27 1   
    51    26    53 1   
    52    26    54 1   
    53    26    65 1   
    54    27    28 1   
    55    27    29 1   
    56    27    55 1   
    57    28    32 1   
    58    29    30 1   
    59    29    56 1   
    60    29    57 1   
    61    30    31 1   
    62    30    58 1   
    63    31    32 1   
    64    31    59 1   
    65    31    60 1   
    66    32    33 1   
    67    32    61 1   
    68    35    62 1   
    69    36    63 1   
    70    36    64 1   
@<TRIPOS>SUBSTRUCTURE
     1 44O         1 TEMP              0 ****  ****    0 ROOT
