@<TRIPOS>MOLECULE
molecule
   66    70     1     0     0
SMALL
bcc


@<TRIPOS>ATOM
      1 C4           0.0000     0.0000     0.0000 ca         1 44O       0.467800
      2 C5           1.4050     0.0000     0.0000 ca         1 44O      -0.194200
      3 C6           2.0680     0.0000     1.2390 ca         1 44O       0.785200
      4 C8           0.7600    -0.0060    -2.0700 cc         1 44O       0.439700
      5 N1           1.3360    -0.0020     2.3490 nb         1 44O      -0.815000
      6 N3          -0.6470    -0.0020     1.1610 nb         1 44O      -0.787000
      7 CBI          7.6010    -2.7780    -5.9280 c3         1 44O       0.093700
      8 NAU          7.3080    -3.9820    -5.1340 ns         1 44O      -0.596900
      9 CBA          8.2060    -4.9310    -5.4340 c          1 44O       0.819500
     10 OAC          8.2010    -6.0330    -4.9220 o          1 44O      -0.676500
     11 NAT          9.1110    -4.5530    -6.3480 ns         1 44O      -0.597900
     12 CBF          8.8300    -3.1680    -6.7560 c3         1 44O       0.091700
     13 CAO          8.5530    -3.1320    -8.2720 c3         1 44O       0.013700
     14 SAY          6.7310    -3.3740    -8.3560 ss         1 44O      -0.348200
     15 CBH          6.3810    -2.4430    -6.8090 c3         1 44O       0.027400
     16 CAK          5.0880    -2.9400    -6.1580 c3         1 44O      -0.063400
     17 CAI          3.8890    -2.4850    -6.9930 c3         1 44O      -0.086400
     18 CAH          2.5970    -2.9810    -6.3420 c3         1 44O      -0.070400
     19 CAJ          1.3980    -2.5260    -7.1760 c3         1 44O      -0.157400
     20 CAZ          0.1250    -3.0150    -6.5350 c          1 44O       0.671100
     21 OAB          0.1720    -3.6650    -5.5110 o          1 44O      -0.540100
     22 NAV         -1.0660    -2.7320    -7.0990 ns         1 44O      -0.684300
     23 SBK         -2.4650    -3.2690    -6.3940 s6         1 44O       1.657100
     24 OAD         -3.5310    -2.7840    -7.1980 o          1 44O      -0.629300
     25 OAE         -2.2690    -4.6490    -6.1140 o          1 44O      -0.629300
     26 CAN         -2.9820    -1.2000    -5.1390 c3         1 44O       0.166400
     27 CBE         -3.0750    -0.6010    -3.7350 c3         1 44O       0.165100
     28 OAX         -1.7750    -0.5820    -3.1370 os         1 44O      -0.433600
     29 CAL         -3.6110     0.8300    -3.8220 c3         1 44O       0.116800
     30 NAS         -3.6250     1.4260    -2.4790 n7         1 44O      -0.809200
     31 CAM         -2.2750     1.4290    -1.8970 c3         1 44O       0.106800
     32 CBG         -1.7510    -0.0080    -1.8270 c3         1 44O       0.278800
     33 N9          -0.3780    -0.0050    -1.3190 na         1 44O      -0.252000
     34 N7           1.8050     0.0020    -1.2950 nd         1 44O      -0.589100
     35 C2           0.0170    -0.0030     2.2980 ca         1 44O       0.732900
     36 N6           3.4510     0.0000     1.3020 nv         1 44O      -1.007500
     37 H1           0.7910    -0.0140    -3.1530 h5         1 44O       0.084800
     38 H3           6.5620    -4.0750    -4.4740 hn         1 44O       0.365500
     39 H4           9.8560    -5.1220    -6.6980 hn         1 44O       0.362500
     40 H5           9.6680    -2.5270    -6.5110 h1         1 44O       0.066700
     41 H6           8.8310    -2.1720    -8.6890 h1         1 44O       0.080200
     42 H7           9.0700    -3.9410    -8.7740 h1         1 44O       0.080200
     43 H8           6.3350    -1.3790    -7.0080 h1         1 44O       0.076700
     44 H9           5.1020    -4.0220    -6.1070 hc         1 44O       0.062700
     45 H10          5.0070    -2.5320    -5.1580 hc         1 44O       0.062700
     46 H11          3.8750    -1.4030    -7.0450 hc         1 44O       0.046700
     47 H12          3.9700    -2.8930    -7.9940 hc         1 44O       0.046700
     48 H13          2.6120    -4.0630    -6.2900 hc         1 44O       0.063700
     49 H14          2.5170    -2.5730    -5.3420 hc         1 44O       0.063700
     50 H15          1.4780    -2.9350    -8.1760 hc         1 44O       0.065200
     51 H16          1.3840    -1.4440    -7.2280 hc         1 44O       0.065200
     52 H17         -1.1030    -2.2300    -7.9640 hn         1 44O       0.343500
     53 H18         -2.2500    -0.6510    -5.7180 h1         1 44O       0.067200
     54 H19         -3.9490    -1.1340    -5.6240 h1         1 44O       0.067200
     55 H20         -3.7420    -1.1980    -3.1250 h1         1 44O       0.080700
     56 H21         -4.6190     0.8130    -4.2200 h1         1 44O       0.047700
     57 H22         -2.9700     1.4160    -4.4700 h1         1 44O       0.047700
     58 H23         -3.9660     2.3650    -2.5340 hn         1 44O       0.371800
     59 H25         -2.3140     1.8470    -0.8980 h1         1 44O       0.058700
     60 H26         -1.6160     2.0230    -2.5180 h1         1 44O       0.058700
     61 H27         -2.3840    -0.5900    -1.1690 h2         1 44O       0.095700
     62 H28         -0.5400    -0.0040     3.2270 h5         1 44O       0.063100
     63 H29          3.9190     0.5130     2.0230 hn         1 44O       0.448800
     64 H30          3.9830    -0.5110     0.6260 hn         1 44O       0.448800
     65 OAW         -2.5880    -2.5700    -5.0480 os         1 44O      -0.532500
     66 H2           7.8340    -1.9450    -5.2760 h1         1 44O       0.067700
@<TRIPOS>BOND
     1    25    23 2   
     2    24    23 2   
     3    23    65 1   
     4    23    22 1   
     5    65    26 1   
     6    22    20 1   
     7    29    27 1   
     8    29    30 1   
     9    26    27 1   
    10    27    28 1   
    11    30    31 1   
    12    20    21 2   
    13    20    19 1   
    14    19    18 1   
    15    28    32 1   
    16    31    32 1   
    17    32    33 1   
    18    18    17 1   
    19    33     1 1   
    20    33     4 1   
    21     6     1 ar  
    22     6    35 ar  
    23    17    16 1   
    24     1     2 ar  
    25     4    34 2   
    26    35     5 ar  
    27    16    15 1   
    28     2    34 1   
    29     2     3 ar  
    30     8     7 1   
    31     8     9 1   
    32     5     3 ar  
    33     7    15 1   
    34     7    12 1   
    35    15    14 1   
    36     3    36 1   
    37     9    10 2   
    38     9    11 1   
    39    12    11 1   
    40    12    13 1   
    41    14    13 1   
    42     4    37 1   
    43     7    66 1   
    44     8    38 1   
    45    11    39 1   
    46    12    40 1   
    47    13    41 1   
    48    13    42 1   
    49    15    43 1   
    50    16    44 1   
    51    16    45 1   
    52    17    46 1   
    53    17    47 1   
    54    18    48 1   
    55    18    49 1   
    56    19    50 1   
    57    19    51 1   
    58    22    52 1   
    59    26    53 1   
    60    26    54 1   
    61    27    55 1   
    62    29    56 1   
    63    29    57 1   
    64    30    58 1   
    65    31    59 1   
    66    31    60 1   
    67    32    61 1   
    68    35    62 1   
    69    36    63 1   
    70    36    64 1   
@<TRIPOS>SUBSTRUCTURE
     1 44O         1 TEMP              0 ****  ****    0 ROOT
