@<TRIPOS>MOLECULE
molecule
   38    39     1     0     0
SMALL
bcc


@<TRIPOS>ATOM
      1 N1           0.0000     0.0000     0.0000 n          1 44P      -0.340000
      2 C2           1.3460     0.0000     0.0000 c          1 44P       0.815500
      3 O2           1.9450     0.0020    -1.0580 o          1 44P      -0.688500
      4 N3           2.0370     0.0000     1.1550 ns         1 44P      -0.571500
      5 C4           1.3870    -0.0010     2.3370 c          1 44P       0.696700
      6 O4           2.0120    -0.0010     3.3820 o          1 44P      -0.695500
      7 C5          -0.0290    -0.0010     2.3500 cc         1 44P      -0.372200
      8 C6          -0.6970    -0.0020     1.1770 cd         1 44P       0.007600
      9 PA          -5.4130     3.4600    -1.4420 p5         1 44P       1.126600
     10 PB          -6.5760     6.1940    -1.2520 p5         1 44P       1.104700
     11 C1'         -0.7260     0.0060    -1.2730 c3         1 44P       0.299500
     12 O1A         -5.7540     3.2070     0.1110 o          1 44P      -0.809500
     13 O1B         -6.8880     5.9620     0.1750 o          1 44P      -0.875167
     14 C2'         -1.5710    -1.2840    -1.4250 c3         1 44P       0.078100
     15 O2'         -0.7910    -2.3410    -1.9890 oh         1 44P      -0.581800
     16 O2A         -6.5600     3.0300    -2.2740 o          1 44P      -0.809500
     17 O2B         -6.3040     7.7620    -1.4940 o          1 44P      -0.875167
     18 C3'         -2.6780    -0.8320    -2.4080 c3         1 44P       0.087100
     19 O3'         -2.3540    -1.2240    -3.7430 oh         1 44P      -0.587800
     20 C3A         -5.0960     5.2340    -1.7140 c3         1 44P      -0.394800
     21 O3B         -7.8190     5.7180    -2.1580 o          1 44P      -0.875167
     22 C4'         -2.6880     0.7050    -2.2840 c3         1 44P       0.115100
     23 O4'         -1.7100     1.0620    -1.2910 os         1 44P      -0.369600
     24 C5'         -4.0740     1.1830    -1.8490 c3         1 44P       0.227400
     25 O5'         -4.1070     2.6120    -1.8500 os         1 44P      -0.580200
     26 H5          -0.5690    -0.0030     3.2900 ha         1 44P       0.165000
     27 H6          -1.7800    -0.0020     1.1680 h4         1 44P       0.185000
     28 H1'         -0.0420     0.1110    -2.1070 h2         1 44P       0.113700
     29 H2'         -1.9990    -1.5770    -0.4740 h1         1 44P       0.050700
     30 HO2'        -1.0090    -3.1540    -1.5650 ho         1 44P       0.384000
     31 H3'         -3.6360    -1.2390    -2.1090 h1         1 44P       0.052700
     32 HO3'        -3.0570    -1.7440    -4.0970 ho         1 44P       0.391000
     33 H3A         -4.8680     5.4040    -2.7600 hc         1 44P       0.029200
     34 H3AA        -4.2570     5.5480    -1.1060 hc         1 44P       0.029200
     35 H4'         -2.4230     1.1500    -3.2360 h1         1 44P       0.078700
     36 H5'         -4.2850     0.8180    -0.8510 h1         1 44P       0.027200
     37 H5'A        -4.8200     0.8040    -2.5370 h1         1 44P       0.027200
     38 HN3          3.0370     0.0000     1.1370 hn         1 44P       0.336500
@<TRIPOS>BOND
     1    11     1 1   
     2     8     1 1   
     3     1     2 1   
     4     2     3 2   
     5     2     4 1   
     6     5     4 1   
     7     7     5 1   
     8     5     6 2   
     9     8     7 2   
    10     7    26 1   
    11     8    27 1   
    12    20     9 1   
    13    16     9 1   
    14     9    12 1   
    15     9    25 1   
    16    13    10 1   
    17    21    10 1   
    18    17    10 1   
    19    10    20 1   
    20    14    11 1   
    21    23    11 1   
    22    11    28 1   
    23    18    14 1   
    24    14    15 1   
    25    14    29 1   
    26    15    30 1   
    27    18    22 1   
    28    18    19 1   
    29    18    31 1   
    30    19    32 1   
    31    20    33 1   
    32    20    34 1   
    33    24    22 1   
    34    22    23 1   
    35    22    35 1   
    36    25    24 1   
    37    24    36 1   
    38    24    37 1   
    39     4    38 1   
@<TRIPOS>SUBSTRUCTURE
     1 44P         1 TEMP              0 ****  ****    0 ROOT
