@<TRIPOS>MOLECULE
44R
   61    64     1     0     0
SMALL
bcc


@<TRIPOS>ATOM
      1 C2           0.0000     0.0000     0.0000 ca         1 44R       0.690900
      2 C4          -0.1050     0.0080     2.2960 ca         1 44R       0.265800
      3 C5           1.3000     0.0090     2.3490 ca         1 44R      -0.236200
      4 C6           2.0090     0.0000     1.1360 ca         1 44R       0.592200
      5 N1           1.3210     0.0000     0.0000 nb         1 44R      -0.738000
      6 N3          -0.7060     0.0030     1.1120 nb         1 44R      -0.687000
      7 C8           0.5760     0.0250     4.3930 cc         1 44R       0.257700
      8 CBI          6.3400    -2.5000    11.5740 c3         1 44R       0.011700
      9 NAU          6.7240    -1.1820    11.0440 ns         1 44R      -0.215900
     10 CBA          7.7370    -0.6950    11.7750 c          1 44R       0.623500
     11 OAC          8.2540     0.3830    11.5570 o          1 44R      -0.721500
     12 NAT          8.1280    -1.5060    12.7680 ns         1 44R      -0.213900
     13 CBF          7.2980    -2.7210    12.7510 c3         1 44R       0.008700
     14 CAO          6.5570    -2.8480    14.0970 c3         1 44R       0.087700
     15 SAY          4.9870    -1.9440    13.7790 ss         1 44R      -0.401200
     16 CBH          4.8650    -2.4580    12.0170 c3         1 44R       0.066400
     17 CAK          3.9840    -1.3770    11.2460 c3         1 44R      -0.000400
     18 CAI          2.5000    -1.4460    11.6090 c3         1 44R      -0.034400
     19 CAH          1.7240    -0.4160    10.7830 c3         1 44R      -0.014400
     20 CAJ          0.2400    -0.4860    11.1480 c3         1 44R      -0.098400
     21 CAZ         -0.5250     0.5270    10.3340 c          1 44R       0.642100
     22 OAB          0.0610     1.2350     9.5430 o          1 44R      -0.593100
     23 NAV         -1.8580     0.6470    10.4880 ns         1 44R      -0.321300
     24 SBK         -2.6970     1.7600     9.5940 s6         1 44R       1.116500
     25 OAD         -4.0640     1.6170     9.9560 o          1 44R      -0.565300
     26 OAE         -1.9870     2.9860     9.7100 o          1 44R      -0.565300
     27 NAW         -2.5840     1.3020     8.0070 n7         1 44R      -0.579100
     28 CAN         -3.1920     0.0470     7.5620 c3         1 44R       0.224800
     29 CBE         -3.2770     0.0350     6.0340 c3         1 44R       0.216400
     30 OAX         -1.9580     0.0320     5.4840 os         1 44R      -0.427600
     31 N9          -0.5320     0.0170     3.6000 na         1 44R       0.196000
     32 N7           1.6500     0.0140     3.6580 nd         1 44R      -0.497100
     33 N6           3.3930     0.0010     1.1250 nv         1 44R      -0.488500
     34 H1          -0.5220    -0.0000    -0.9490 h5         1 44R      -0.004900
     35 H2           0.5650     0.0380     5.4760 h5         1 44R       0.043800
     36 H4           6.3000    -0.7240    10.2620 hn         1 44R       0.220500
     37 H5           8.8660    -1.3150    13.4170 hn         1 44R       0.215500
     38 H6           7.9150    -3.5950    12.5760 h1         1 44R       0.037700
     39 H7           6.3590    -3.8870    14.3280 h1         1 44R       0.054700
     40 H8           7.1190    -2.3700    14.8900 h1         1 44R       0.054700
     41 H9           4.4570    -3.4590    11.9400 h1         1 44R       0.054700
     42 H10          4.3420    -0.3820    11.4850 hc         1 44R       0.029700
     43 H11          4.0640    -1.5410    10.1780 hc         1 44R       0.029700
     44 H12          2.1120    -2.4260    11.3580 hc         1 44R       0.020700
     45 H13          2.3790    -1.2710    12.6710 hc         1 44R       0.020700
     46 H14          2.1030     0.5760    10.9960 hc         1 44R       0.032700
     47 H15          1.8480    -0.6320     9.7290 hc         1 44R       0.032700
     48 H16          0.1160    -0.2700    12.2020 hc         1 44R       0.032200
     49 H17         -0.1380    -1.4790    10.9360 hc         1 44R       0.032200
     50 H18         -2.3350     0.0870    11.1660 hn         1 44R       0.233500
     51 H19         -2.1300     1.9000     7.3460 hn         1 44R       0.371800
     52 H20         -2.5870    -0.7870     7.8960 h1         1 44R       0.020700
     53 H21         -4.1880    -0.0400     7.9800 h1         1 44R       0.020700
     54 H22         -3.8080     0.9170     5.6950 h1         1 44R       0.003700
     55 H23         -3.8070    -0.8520     5.7080 h1         1 44R       0.003700
     56 H26          3.8990     0.2840     1.9410 hn         1 44R       0.276800
     57 H27          3.8870    -0.2920     0.3060 hn         1 44R       0.276800
     58 CBG         -1.9250     0.0200     4.0560 c3         1 44R       0.213100
     59 H3           6.4870    -3.2650    10.8210 h1         1 44R       0.038700
     60 H24         -2.4260    -0.8670     3.6900 h2         1 44R       0.013700
     61 H25         -2.4270     0.9020     3.6750 h2         1 44R       0.013700
@<TRIPOS>BOND
     1     1     5 ar  
     2     1     6 ar  
     3     1    34 1   
     4     2     3 ar  
     5     2     6 ar  
     6     2    31 1   
     7     3     4 ar  
     8     3    32 1   
     9     4     5 ar  
    10     4    33 1   
    11     7    31 1   
    12     7    32 2   
    13     7    35 1   
    14     8     9 1   
    15     8    13 1   
    16     8    16 1   
    17     8    59 1   
    18     9    10 1   
    19     9    36 1   
    20    10    11 2   
    21    10    12 1   
    22    12    13 1   
    23    12    37 1   
    24    13    14 1   
    25    13    38 1   
    26    14    15 1   
    27    14    39 1   
    28    14    40 1   
    29    15    16 1   
    30    16    17 1   
    31    16    41 1   
    32    17    18 1   
    33    17    42 1   
    34    17    43 1   
    35    18    19 1   
    36    18    44 1   
    37    18    45 1   
    38    19    20 1   
    39    19    46 1   
    40    19    47 1   
    41    20    21 1   
    42    20    48 1   
    43    20    49 1   
    44    21    22 2   
    45    21    23 1   
    46    23    24 1   
    47    23    50 1   
    48    24    25 2   
    49    24    26 2   
    50    24    27 1   
    51    27    28 1   
    52    27    51 1   
    53    28    29 1   
    54    28    52 1   
    55    28    53 1   
    56    29    30 1   
    57    29    54 1   
    58    29    55 1   
    59    30    58 1   
    60    31    58 1   
    61    33    56 1   
    62    33    57 1   
    63    58    60 1   
    64    58    61 1   
@<TRIPOS>SUBSTRUCTURE
     1 44R         1 TEMP              0 ****  ****    0 ROOT
