@<TRIPOS>MOLECULE
molecule
   61    64     1     0     0
SMALL
bcc


@<TRIPOS>ATOM
      1 C2           0.0000     0.0000     0.0000 ca         1 44R       0.739900
      2 C4          -0.1050     0.0080     2.2960 ca         1 44R       0.469800
      3 C5           1.3000     0.0090     2.3490 ca         1 44R      -0.203200
      4 C6           2.0090     0.0000     1.1360 ca         1 44R       0.788200
      5 N1           1.3210     0.0000     0.0000 nb         1 44R      -0.830000
      6 N3          -0.7060     0.0030     1.1120 nb         1 44R      -0.799000
      7 C8           0.5760     0.0250     4.3930 cc         1 44R       0.437700
      8 CBI          6.3400    -2.5000    11.5740 c3         1 44R       0.094700
      9 NAU          6.7240    -1.1820    11.0440 ns         1 44R      -0.595900
     10 CBA          7.7370    -0.6950    11.7750 c          1 44R       0.819500
     11 OAC          8.2540     0.3830    11.5570 o          1 44R      -0.677500
     12 NAT          8.1280    -1.5060    12.7680 ns         1 44R      -0.597900
     13 CBF          7.2980    -2.7210    12.7510 c3         1 44R       0.092700
     14 CAO          6.5570    -2.8480    14.0970 c3         1 44R       0.012700
     15 SAY          4.9870    -1.9440    13.7790 ss         1 44R      -0.350200
     16 CBH          4.8650    -2.4580    12.0170 c3         1 44R       0.028400
     17 CAK          3.9840    -1.3770    11.2460 c3         1 44R      -0.054400
     18 CAI          2.5000    -1.4460    11.6090 c3         1 44R      -0.086400
     19 CAH          1.7240    -0.4160    10.7830 c3         1 44R      -0.068400
     20 CAJ          0.2400    -0.4860    11.1480 c3         1 44R      -0.158400
     21 CAZ         -0.5250     0.5270    10.3340 c          1 44R       0.677100
     22 OAB          0.0610     1.2350     9.5430 o          1 44R      -0.557100
     23 NAV         -1.8580     0.6470    10.4880 ns         1 44R      -0.669300
     24 SBK         -2.6970     1.7600     9.5940 s6         1 44R       1.534500
     25 OAD         -4.0640     1.6170     9.9560 o          1 44R      -0.625300
     26 OAE         -1.9870     2.9860     9.7100 o          1 44R      -0.625300
     27 NAW         -2.5840     1.3020     8.0070 n7         1 44R      -0.913100
     28 CAN         -3.1920     0.0470     7.5620 c3         1 44R       0.238800
     29 CBE         -3.2770     0.0350     6.0340 c3         1 44R       0.142400
     30 OAX         -1.9580     0.0320     5.4840 os         1 44R      -0.449600
     31 N9          -0.5320     0.0170     3.6000 na         1 44R      -0.258000
     32 N7           1.6500     0.0140     3.6580 nd         1 44R      -0.589100
     33 N6           3.3930     0.0010     1.1250 nv         1 44R      -0.989500
     34 H1          -0.5220    -0.0000    -0.9490 h5         1 44R       0.061100
     35 H2           0.5650     0.0380     5.4760 h5         1 44R       0.093800
     36 H4           6.3000    -0.7240    10.2620 hn         1 44R       0.364500
     37 H5           8.8660    -1.3150    13.4170 hn         1 44R       0.362500
     38 H6           7.9150    -3.5950    12.5760 h1         1 44R       0.066700
     39 H7           6.3590    -3.8870    14.3280 h1         1 44R       0.080700
     40 H8           7.1190    -2.3700    14.8900 h1         1 44R       0.080700
     41 H9           4.4570    -3.4590    11.9400 h1         1 44R       0.074700
     42 H10          4.3420    -0.3820    11.4850 hc         1 44R       0.058700
     43 H11          4.0640    -1.5410    10.1780 hc         1 44R       0.058700
     44 H12          2.1120    -2.4260    11.3580 hc         1 44R       0.047200
     45 H13          2.3790    -1.2710    12.6710 hc         1 44R       0.047200
     46 H14          2.1030     0.5760    10.9960 hc         1 44R       0.062200
     47 H15          1.8480    -0.6320     9.7290 hc         1 44R       0.062200
     48 H16          0.1160    -0.2700    12.2020 hc         1 44R       0.067200
     49 H17         -0.1380    -1.4790    10.9360 hc         1 44R       0.067200
     50 H18         -2.3350     0.0870    11.1660 hn         1 44R       0.344500
     51 H19         -2.1300     1.9000     7.3460 hn         1 44R       0.473800
     52 H20         -2.5870    -0.7870     7.8960 h1         1 44R       0.057200
     53 H21         -4.1880    -0.0400     7.9800 h1         1 44R       0.057200
     54 H22         -3.8080     0.9170     5.6950 h1         1 44R       0.042200
     55 H23         -3.8070    -0.8520     5.7080 h1         1 44R       0.042200
     56 H26          3.8990     0.2840     1.9410 hn         1 44R       0.450300
     57 H27          3.8870    -0.2920     0.3060 hn         1 44R       0.450300
     58 CBG         -1.9250     0.0200     4.0560 c3         1 44R       0.274100
     59 H3           6.4870    -3.2650    10.8210 h1         1 44R       0.067700
     60 H24         -2.4260    -0.8670     3.6900 h2         1 44R       0.052700
     61 H25         -2.4270     0.9020     3.6750 h2         1 44R       0.052700
@<TRIPOS>BOND
     1    26    24 2   
     2    25    24 2   
     3    24    27 1   
     4    24    23 1   
     5    27    28 1   
     6    23    21 1   
     7    28    29 1   
     8    21    22 2   
     9    21    20 1   
    10    29    30 1   
    11    30    58 1   
    12    20    19 1   
    13    58    31 1   
    14    19    18 1   
    15    31     2 1   
    16    31     7 1   
    17     6     2 ar  
    18     6     1 ar  
    19    18    17 1   
    20     2     3 ar  
    21     7    32 2   
    22     1     5 ar  
    23     3    32 1   
    24     3     4 ar  
    25    17    16 1   
    26     5     4 ar  
    27     9     8 1   
    28     9    10 1   
    29     4    33 1   
    30     8    16 1   
    31     8    13 1   
    32    16    15 1   
    33    11    10 2   
    34    10    12 1   
    35    13    12 1   
    36    13    14 1   
    37    15    14 1   
    38     1    34 1   
    39     7    35 1   
    40     8    59 1   
    41     9    36 1   
    42    12    37 1   
    43    13    38 1   
    44    14    39 1   
    45    14    40 1   
    46    16    41 1   
    47    17    42 1   
    48    17    43 1   
    49    18    44 1   
    50    18    45 1   
    51    19    46 1   
    52    19    47 1   
    53    20    48 1   
    54    20    49 1   
    55    23    50 1   
    56    27    51 1   
    57    28    52 1   
    58    28    53 1   
    59    29    54 1   
    60    29    55 1   
    61    58    60 1   
    62    58    61 1   
    63    33    56 1   
    64    33    57 1   
@<TRIPOS>SUBSTRUCTURE
     1 44R         1 TEMP              0 ****  ****    0 ROOT
