@<TRIPOS>MOLECULE
molecule
   26    26     1     0     0
SMALL
bcc


@<TRIPOS>ATOM
      1 O1P          0.0000     0.0000     0.0000 o          1 44S      -0.910833
      2 P            1.6100     0.0000     0.0000 p5         1 44S       1.182900
      3 O3P          2.1040     0.0000     1.3950 o          1 44S      -0.910833
      4 O2P          2.1460    -1.3140    -0.7600 o          1 44S      -0.910833
      5 O6           2.1460     1.3150    -0.7600 os         1 44S      -0.584200
      6 C6           1.9270     2.6400    -0.2690 c3         1 44S       0.211400
      7 C5           2.5650     3.6490    -1.2260 c3         1 44S       0.121100
      8 O5           1.8950     3.5980    -2.4870 oh         1 44S      -0.617800
      9 C4           2.4400     5.0570    -0.6390 c3         1 44S       0.140100
     10 C3           2.9680     6.0950    -1.6530 c3         1 44S       0.103100
     11 O3           4.2890     6.5160    -1.3090 oh         1 44S      -0.602800
     12 C2           1.9560     7.2620    -1.4870 c3         1 44S      -0.136400
     13 O4           1.0630     5.3590    -0.3880 os         1 44S      -0.392600
     14 C1           0.6520     6.4800    -1.1860 c3         1 44S       0.341900
     15 O1          -0.2620     7.3000    -0.4560 oh         1 44S      -0.611800
     16 H3           2.3740     2.7400     0.7130 h1         1 44S       0.030200
     17 H4           0.8620     2.8290    -0.2020 h1         1 44S       0.030200
     18 H5           3.6120     3.4060    -1.3620 h1         1 44S       0.034700
     19 H6           2.4270     3.1260    -3.1070 ho         1 44S       0.399000
     20 H7           3.0040     5.1280     0.2840 h1         1 44S       0.079700
     21 H8           2.9320     5.6980    -2.6600 h1         1 44S       0.058700
     22 H9           4.8240     6.5370    -2.0860 ho         1 44S       0.390000
     23 H10          1.8640     7.8290    -2.4050 hc         1 44S       0.054200
     24 H11          2.2290     7.8960    -0.6520 hc         1 44S       0.054200
     25 H12          0.2020     6.1360    -2.1090 h2         1 44S       0.045700
     26 H13         -1.1460     7.0690    -0.6880 ho         1 44S       0.404000
@<TRIPOS>BOND
     1     3     2 1   
     2     1     2 1   
     3    15    14 1   
     4     2     4 1   
     5     2     5 1   
     6     6     5 1   
     7     6     7 1   
     8    13    14 1   
     9    13     9 1   
    10    14    12 1   
    11     9     7 1   
    12     9    10 1   
    13     7     8 1   
    14    12    10 1   
    15    10    11 1   
    16     6    16 1   
    17     6    17 1   
    18     7    18 1   
    19     8    19 1   
    20     9    20 1   
    21    10    21 1   
    22    11    22 1   
    23    12    23 1   
    24    12    24 1   
    25    14    25 1   
    26    15    26 1   
@<TRIPOS>SUBSTRUCTURE
     1 44S         1 TEMP              0 ****  ****    0 ROOT
