@<TRIPOS>MOLECULE
44U
   59    60     1     0     0
SMALL
bcc


@<TRIPOS>ATOM
      1 C1          0.9060    0.6880    2.9970 c3        1 44U     -0.220000
      2 C2          2.1290    0.0430    2.3970 c3        1 44U     -0.171000
      3 C3          3.2400   -0.0300    3.4450 c3        1 44U     -0.055000
      4 C7          5.3370    0.1350    2.1390 c3        1 44U      0.114000
      5 C9          5.8290   -0.5310    0.8100 c3        1 44U     -0.196000
      6 C10         7.3550   -0.4470    0.8300 c3        1 44U     -0.193000
      7 C11         7.6810    0.2270    2.1350 c2        1 44U      0.072000
      8 C15         6.6370    0.1130    5.3750 c3        1 44U     -0.147000
      9 C19         7.9900   -0.1340    8.6790 ca        1 44U     -0.132000
     10 C20         7.7190    0.1110   10.0250 ca        1 44U     -0.111500
     11 C21         6.9840    1.2370   10.3990 ca        1 44U     -0.080000
     12 C22         6.5160    2.1190    9.4220 ca        1 44U     -0.111500
     13 C24         8.5180    1.6760    5.6080 c2        1 44U     -0.200000
     14 C27         8.8980    4.2190    3.8200 c1        1 44U      0.071000
     15 N4          4.4680   -0.6480    2.9660 n         1 44U     -0.366000
     16 C5          4.8550   -1.9170    3.3940 c2        1 44U      0.267000
     17 O6          4.4940   -2.3580    4.4970 o         1 44U     -0.351000
     18 N12         6.6380    0.5280    2.8570 n3        1 44U     -0.179000
     19 O14         5.4630    1.9510    4.2560 o         1 44U     -0.517000
     20 C17         7.8500    0.4870    6.2610 c3        1 44U     -0.022000
     21 C18         7.5250    0.7490    7.6950 ca        1 44U     -0.183000
     22 C23         6.7840    1.8780    8.0770 ca        1 44U     -0.132000
     23 C25         9.6530    2.2120    6.1170 c2        1 44U      0.035000
     24 C26         9.7250    5.2030    3.8820 c2        1 44U     -0.149000
     25 C28         7.9780    3.2550    3.6660 c2        1 44U     -0.193000
     26 C29         7.8090    2.1200    4.4570 c2        1 44U      0.169000
     27 N30         5.3340    0.0090    6.0870 n4        1 44U     -0.067000
     28 H1          2.8680   -0.6370    4.3210 h1        1 44U      0.112500
     29 H1A         0.0960    0.7490    2.2290 hc        1 44U      0.092333
     30 H1B         1.1310    1.7220    3.3520 hc        1 44U      0.092333
     31 H2          0.5230    0.0910    3.8610 hc        1 44U      0.092333
     32 H2A         1.8730   -0.9870    2.0330 hc        1 44U      0.095500
     33 H3          2.4740    0.6380    1.5110 hc        1 44U      0.095500
     34 H3A         3.4740    1.0170    3.8030 h1        1 44U      0.112500
     35 H7          5.5200   -2.4840    2.7020 h5        1 44U      0.156000
     36 H9          4.8210    1.1260    1.9140 h2        1 44U      0.187000
     37 H9A         5.4800   -1.5880    0.7100 hc        1 44U      0.146000
     38 H10         5.4020    0.0450   -0.0510 hc        1 44U      0.146000
     39 H10A        7.8420   -1.4570    0.7790 hc        1 44U      0.166000
     40 H11         7.7530    0.1600   -0.0280 hc        1 44U      0.166000
     41 H11A        8.7230    0.4500    2.4260 h4        1 44U      0.192000
     42 H15         6.8280   -0.9060    4.9280 hx        1 44U      0.140000
     43 H21         5.9390    3.0110    9.7170 ha        1 44U      0.169000
     44 H22         6.7760    1.4330   11.4650 ha        1 44U      0.174000
     45 H27        10.6850    5.2370    3.3240 ha        1 44U      0.233500
     46 HN4         5.1380    3.3330    2.0510 ha        1 44U      0.002000
     47 H17         8.5710   -0.3840    6.2130 hc        1 44U      0.138000
     48 H23         5.4660    0.0630    7.1060 hn        1 44U      0.274333
     49 H25        10.1270    1.7990    7.0260 ha        1 44U      0.162500
     50 H26        10.1610    3.0760    5.6580 ha        1 44U      0.162500
     51 H28         9.5360    6.1090    4.5000 ha        1 44U      0.233500
     52 H29         7.2070    3.4150    2.8710 ha        1 44U      0.210000
     53 HN30        4.7240    0.7940    5.7840 hn        1 44U      0.274333
     54 HN3A        4.8650   -0.8800    5.8520 hn        1 44U      0.274333
     55 C13         6.5430    1.2450    4.2180 c3        1 44U      0.293000
     56 H19         8.5780   -1.0230    8.3990 ha        1 44U      0.142000
     57 H42         4.6550    3.4730    2.5060 ha        1 44U      0.002000
     58 H303        6.4280    2.5870    7.3140 ha        1 44U      0.142000
     59 H20         8.0920   -0.5860   10.7950 ha        1 44U      0.169000
@<TRIPOS>BOND
     1    1    2 1
     2    1   29 1
     3    1   30 1
     4    1   31 1
     5    2    3 1
     6    2   32 1
     7    2   33 1
     8    3   15 1
     9    3   28 1
    10    3   34 1
    11    4    5 1
    12    4   15 1
    13    4   18 1
    14    4   36 1
    15    5    6 1
    16    5   37 1
    17    5   38 1
    18    6    7 1
    19    6   39 1
    20    6   40 1
    21    7   18 1
    22    7   41 1
    23    8   20 1
    24    8   27 1
    25    8   42 1
    26    8   55 1
    27    9   10 1
    28    9   21 1
    29    9   56 1
    30   10   11 1
    31   10   59 1
    32   11   12 1
    33   11   44 1
    34   12   22 1
    35   12   43 1
    36   13   20 1
    37   13   23 1
    38   13   26 1
    39   14   24 1
    40   14   25 1
    41   15   16 1
    42   16   17 1
    43   16   35 1
    44   18   55 1
    45   19   55 1
    46   20   21 1
    47   20   47 1
    48   21   22 1
    49   22   58 1
    50   23   49 1
    51   23   50 1
    52   24   45 1
    53   24   51 1
    54   25   26 1
    55   25   52 1
    56   26   55 1
    57   27   48 1
    58   27   53 1
    59   27   54 1
    60   46   57 1
@<TRIPOS>SUBSTRUCTURE
     1 44U         1 TEMP              0 ****  ****    0 ROOT
