@<TRIPOS>MOLECULE
44V
   25    26     1     0     0
SMALL
bcc


@<TRIPOS>ATOM
      1 C13          0.0000     0.0000     0.0000 c3         1 44V      -0.012100
      2 C01          2.0490     0.0000     1.4460 c3         1 44V       0.155800
      3 C02          1.5310     0.0000     0.0000 c3         1 44V       0.094500
      4 N03          2.0280    -1.2170    -0.6620 nu         1 44V      -0.256000
      5 C04          1.9640    -2.4400     0.0400 cc         1 44V      -0.098200
      6 C05          1.7600    -2.4450     1.4140 cd         1 44V       0.100600
      7 N06          1.6140    -1.2450     2.0940 nu         1 44V      -0.372000
      8 N07          1.7040    -3.6090     2.0710 nd         1 44V      -0.397300
      9 C08          1.8380    -4.7530     1.4330 cc         1 44V      -0.111200
     10 N09          2.0380    -4.8020     0.0880 ns         1 44V       0.053600
     11 C10          2.1050    -3.6590    -0.6300 c          1 44V       0.590700
     12 O11          2.2840    -3.6910    -1.8380 o          1 44V      -0.642500
     13 N12          1.7750    -5.9250     2.1440 nz         1 44V       0.250400
     14 H1          -0.3610    -0.7930     0.6440 hc         1 44V       0.021700
     15 H2          -0.3610    -0.1610    -1.0090 hc         1 44V       0.021700
     16 H3          -0.3610     0.9540     0.3650 hc         1 44V       0.021700
     17 H6           1.9020     0.8750    -0.5200 h1         1 44V       0.063700
     18 H7           2.4020    -1.1780    -1.5900 hn         1 44V       0.322800
     19 H8           1.2180    -1.2280     3.0130 hn         1 44V       0.309800
     20 H9           2.1370    -5.6860    -0.3710 hn         1 44V       0.182500
     21 H10          1.6390    -5.7210     3.1140 hn         1 44V       0.205133
     22 H11          1.0110    -6.4780     1.8090 hn         1 44V       0.205133
     23 H4           1.6390     0.8490     1.9790 h1         1 44V       0.041200
     24 H123         2.6330    -6.4290     2.0340 hn         1 44V       0.205133
     25 H5           3.1310     0.0510     1.4450 h1         1 44V       0.041200
@<TRIPOS>BOND
     1     1     3 1   
     2     1    14 1   
     3     1    15 1   
     4     1    16 1   
     5     2     3 1   
     6     2     7 1   
     7     2    23 1   
     8     2    25 1   
     9     3     4 1   
    10     3    17 1   
    11     4     5 1   
    12     4    18 1   
    13     5     6 2   
    14     5    11 1   
    15     6     7 1   
    16     6     8 1   
    17     7    19 1   
    18     8     9 2   
    19     9    10 1   
    20     9    13 1   
    21    10    11 1   
    22    10    20 1   
    23    11    12 2   
    24    13    21 1   
    25    13    22 1   
    26    13    24 1   
@<TRIPOS>SUBSTRUCTURE
     1 44V         1 TEMP              0 ****  ****    0 ROOT
