@<TRIPOS>MOLECULE
44W
   23    24     1     0     0
SMALL
bcc


@<TRIPOS>ATOM
      1 N01          0.0000     0.0000     0.0000 nz         1 44W       0.220400
      2 C02          1.3690     0.0000     0.0000 cc         1 44W      -0.007200
      3 N03          2.0100     0.0000     1.1520 nd         1 44W      -0.424300
      4 C04          3.3400     0.0000     1.1940 cd         1 44W       0.128600
      5 N05          4.0310    -0.0160     2.3910 nu         1 44W      -0.349000
      6 C06          5.3630    -0.6440     2.3920 c3         1 44W       0.096500
      7 C07          6.0850    -0.2660     1.1250 c2         1 44W       0.389300
      8 C08          7.5910    -0.2210     1.1200 c3         1 44W      -0.030400
      9 N19          5.4420     0.0210     0.0450 ne         1 44W      -0.410300
     10 C20          4.0790     0.0080     0.0020 cc         1 44W      -0.008600
     11 C21          3.3810     0.0050    -1.2220 c          1 44W       0.596700
     12 O22          3.9810     0.0050    -2.2840 o          1 44W      -0.571500
     13 N23          2.0300    -0.0050    -1.1900 ns         1 44W       0.029600
     14 H1          -0.3340    -0.0060     0.9440 hn         1 44W       0.217800
     15 H2          -0.3340    -0.8140    -0.4770 hn         1 44W       0.217800
     16 H3           3.6430     0.3820     3.2230 hn         1 44W       0.315800
     17 H4           5.9270    -0.2940     3.2480 h1         1 44W       0.045200
     18 H5           5.2540    -1.7210     2.4380 h1         1 44W       0.045200
     19 H6           7.9460    -0.0920     0.1050 hc         1 44W       0.033033
     20 H7           7.9810    -1.1480     1.5230 hc         1 44W       0.033033
     21 H8           7.9300     0.6080     1.7290 hc         1 44W       0.033033
     22 H9           1.5130    -0.0150    -2.0460 hn         1 44W       0.185500
     23 H013        -0.3340     0.8200    -0.4670 hn         1 44W       0.217800
@<TRIPOS>BOND
     1     1     2 1   
     2     1    14 1   
     3     1    15 1   
     4     1    23 1   
     5     2     3 2   
     6     2    13 1   
     7     3     4 1   
     8     4     5 1   
     9     4    10 2   
    10     5     6 1   
    11     5    16 1   
    12     6     7 1   
    13     6    17 1   
    14     6    18 1   
    15     7     8 1   
    16     7     9 2   
    17     8    19 1   
    18     8    20 1   
    19     8    21 1   
    20     9    10 1   
    21    10    11 1   
    22    11    12 2   
    23    11    13 1   
    24    13    22 1   
@<TRIPOS>SUBSTRUCTURE
     1 44W         1 TEMP              0 ****  ****    0 ROOT
