@<TRIPOS>MOLECULE
molecule
   23    24     1     0     0
SMALL
bcc


@<TRIPOS>ATOM
      1 N01          0.0000     0.0000     0.0000 nz         1 44W      -0.731600
      2 C02          1.3690     0.0000     0.0000 cc         1 44W       0.461800
      3 N03          2.0100     0.0000     1.1520 nc         1 44W      -0.602300
      4 C04          3.3400     0.0000     1.1940 cc         1 44W       0.343600
      5 N05          4.0310    -0.0160     2.3910 nu         1 44W      -0.776000
      6 C06          5.3630    -0.6440     2.3920 c3         1 44W       0.145500
      7 C07          6.0850    -0.2660     1.1250 c2         1 44W       0.449300
      8 C08          7.5910    -0.2210     1.1200 c3         1 44W      -0.133400
      9 N19          5.4420     0.0210     0.0450 nf         1 44W      -0.536300
     10 C20          4.0790     0.0080     0.0020 cd         1 44W       0.012400
     11 C21          3.3810     0.0050    -1.2220 c          1 44W       0.707700
     12 O22          3.9810     0.0050    -2.2840 o          1 44W      -0.530500
     13 N23          2.0300    -0.0050    -1.1900 ns         1 44W      -0.452400
     14 H1          -0.3340    -0.0060     0.9440 hn         1 44W       0.478133
     15 H2          -0.3340    -0.8140    -0.4770 hn         1 44W       0.478133
     16 H3           3.6430     0.3820     3.2230 hn         1 44W       0.472800
     17 H4           5.9270    -0.2940     3.2480 h1         1 44W       0.080700
     18 H5           5.2540    -1.7210     2.4380 h1         1 44W       0.080700
     19 H6           7.9460    -0.0920     0.1050 hc         1 44W       0.075033
     20 H7           7.9810    -1.1480     1.5230 hc         1 44W       0.075033
     21 H8           7.9300     0.6080     1.7290 hc         1 44W       0.075033
     22 H9           1.5130    -0.0150    -2.0460 hn         1 44W       0.346500
     23 H013        -0.3340     0.8200    -0.4670 hn         1 44W       0.478133
@<TRIPOS>BOND
     1     5     6 1   
     2     5     4 1   
     3     6     7 1   
     4     3     4 1   
     5     3     2 2   
     6     4    10 2   
     7     7     8 1   
     8     7     9 2   
     9     1     2 1   
    10     2    13 1   
    11    10     9 1   
    12    10    11 1   
    13    13    11 1   
    14    11    12 2   
    15     1    14 1   
    16     1    15 1   
    17     5    16 1   
    18     6    17 1   
    19     6    18 1   
    20     8    19 1   
    21     8    20 1   
    22     8    21 1   
    23    13    22 1   
    24    23     1 1   
@<TRIPOS>SUBSTRUCTURE
     1 44W         1 TEMP              0 ****  ****    0 ROOT
