@<TRIPOS>MOLECULE
44X
   55    59     1     0     0
SMALL
bcc


@<TRIPOS>ATOM
      1 C21         0.0350   -1.5190    1.5780 c3        1 44X     -0.135400
      2 C19         1.4980   -1.6690    1.4940 cc        1 44X      0.326600
      3 C20         2.4580   -0.6010    1.7840 cc        1 44X     -0.337600
      4 N5          2.1790   -2.7810    1.1480 nd        1 44X     -0.350300
      5 O1          3.4710   -2.5330    1.1880 os        1 44X     -0.127100
      6 C18         3.6950   -1.1830    1.5800 cd        1 44X      0.316200
      7 C15         5.0570   -0.7360    1.6750 cd        1 44X     -0.143500
      8 C16         5.3120    0.6420    1.9720 cd        1 44X     -0.158000
      9 C17         6.6060    1.1060    2.0700 cc        1 44X      0.189900
     10 F1          6.8870    2.3930    2.3490 f         1 44X     -0.101900
     11 C14         6.1010   -1.6250    1.4840 cc        1 44X     -0.032300
     12 N2          7.3970   -1.1810    1.5710 na        1 44X     -0.064200
     13 C13         7.7020    0.1860    1.8660 cc        1 44X     -0.117300
     14 N3          9.0700    0.3230    1.8890 nd        1 44X     -0.048000
     15 N4          9.6150   -0.8390    1.6330 nd        1 44X     -0.338700
     16 C11         8.6560   -1.8010    1.4250 cc        1 44X      0.313800
     17 C10         8.8410   -3.2490    1.1010 c3        1 44X     -0.011700
     18 C12        10.2670   -3.5340    0.6660 c3        1 44X     -0.082100
     19 C7          8.4560   -4.1000    2.2750 ca        1 44X     -0.086300
     20 C6          7.4570   -5.0420    2.1580 ca        1 44X     -0.119000
     21 C4          7.1050   -5.8620    3.2600 ca        1 44X     -0.113300
     22 C3          6.0830   -6.8440    3.1600 ca        1 44X     -0.126000
     23 C8          9.1370   -3.9420    3.5110 ca        1 44X     -0.122000
     24 C9          8.8210   -4.7170    4.5960 ca        1 44X     -0.150300
     25 C5          7.7910   -5.7090    4.5050 ca        1 44X      0.368600
     26 N1          7.4840   -6.4860    5.6050 nb        1 44X     -0.630000
     27 C1          6.5300   -7.3900    5.4880 ca        1 44X      0.369200
     28 C2          5.7910   -7.6100    4.2750 ca        1 44X      0.008800
     29 O2          4.7690   -8.5240    4.1490 os        1 44X     -0.322900
     30 C22         4.6510   -9.4780    5.2150 c3        1 44X      0.123400
     31 C23         3.6380  -10.5110    4.7300 c3        1 44X      0.122400
     32 O3          4.3810  -11.6820    4.4020 os        1 44X     -0.423600
     33 C24         3.5870  -12.6750    3.7760 c3        1 44X      0.116700
     34 H1         -0.2520   -1.2430    2.6240 hc        1 44X      0.061367
     35 H2         -0.5000   -2.4600    1.2970 hc        1 44X      0.061367
     36 H3         -0.2960   -0.7010    0.8890 hc        1 44X      0.061367
     37 H4          2.2150    0.4100    2.0910 ha        1 44X      0.178000
     38 H5          4.4620    1.3240    2.1200 ha        1 44X      0.165000
     39 H6          5.9520   -2.7010    1.2700 h4        1 44X      0.194000
     40 H7          8.1570   -3.4910    0.2320 hc        1 44X      0.064700
     41 H8         10.9860   -3.3290    1.4950 hc        1 44X      0.053033
     42 H9         10.5390   -2.8940   -0.2080 hc        1 44X      0.053033
     43 H10        10.3570   -4.6070    0.3710 hc        1 44X      0.053033
     44 H11         6.9170   -5.1830    1.2090 ha        1 44X      0.135000
     45 H12         5.5370   -6.9840    2.2170 ha        1 44X      0.157000
     46 H13         9.9280   -3.1790    3.5820 ha        1 44X      0.151000
     47 H14         9.3540   -4.5890    5.5520 ha        1 44X      0.154000
     48 H15         6.3150   -7.9890    6.3910 h4        1 44X      0.028100
     49 H16         5.6430   -9.9580    5.4210 h1        1 44X      0.057700
     50 H17         4.2700   -8.9540    6.1290 h1        1 44X      0.057700
     51 H18         2.9090  -10.7520    5.5480 h1        1 44X      0.047700
     52 H19         3.0840  -10.1350    3.8280 h1        1 44X      0.047700
     53 H20         3.1700  -12.2970    2.8110 h1        1 44X      0.035700
     54 H21         2.7560  -12.9980    4.4500 h1        1 44X      0.035700
     55 H22         4.2950  -13.5220    3.5930 h1        1 44X      0.035700
@<TRIPOS>BOND
     1    1    2 1
     2    1   34 1
     3    1   35 1
     4    1   36 1
     5    2    3 1
     6    2    4 2
     7    3    6 2
     8    3   37 1
     9    4    5 1
    10    5    6 1
    11    6    7 1
    12    7    8 1
    13    7   11 2
    14    8    9 2
    15    8   38 1
    16    9   10 1
    17    9   13 1
    18   11   12 1
    19   11   39 1
    20   12   13 1
    21   12   16 1
    22   13   14 2
    23   14   15 1
    24   15   16 2
    25   16   17 1
    26   17   18 1
    27   17   19 1
    28   17   40 1
    29   18   41 1
    30   18   42 1
    31   18   43 1
    32   19   20 ar
    33   19   23 ar
    34   20   21 ar
    35   20   44 1
    36   21   22 ar
    37   21   25 ar
    38   22   28 ar
    39   22   45 1
    40   23   24 ar
    41   23   46 1
    42   24   25 ar
    43   24   47 1
    44   25   26 ar
    45   26   27 ar
    46   27   28 ar
    47   27   48 1
    48   28   29 1
    49   29   30 1
    50   30   31 1
    51   30   49 1
    52   30   50 1
    53   31   32 1
    54   31   51 1
    55   31   52 1
    56   32   33 1
    57   33   53 1
    58   33   54 1
    59   33   55 1
@<TRIPOS>SUBSTRUCTURE
     1 44X         1 TEMP              0 ****  ****    0 ROOT
