@<TRIPOS>MOLECULE
44Z
   74    78     1     0     0
SMALL
bcc


@<TRIPOS>ATOM
      1 N            0.0000     0.0000     0.0000 n2         1 44Z      -0.594900
      2 C1           3.2860     0.7880     5.0260 c          1 44Z       0.605500
      3 O1           2.5850     1.1670     5.9400 o          1 44Z      -0.696500
      4 N1           4.5780     1.1180     5.0340 ns         1 44Z      -0.171900
      5 C2           5.5170     0.8070     3.9660 c3         1 44Z       0.024000
      6 C3           5.0130    -0.3680     3.1250 c3         1 44Z       0.053000
      7 N2           3.5950    -0.1290     2.8070 n          1 44Z      -0.167800
      8 C4           2.6580    -0.0390     3.9360 c3         1 44Z      -0.158000
      9 C5           3.1730    -0.0010     1.5330 c          1 44Z       0.629100
     10 O5           3.9820     0.1150     0.6340 o          1 44Z      -0.668100
     11 N3           1.8540     0.0000     1.2580 n          1 44Z      -0.056300
     12 C6           1.2930     0.0000     0.0000 ce         1 44Z       0.425500
     13 C7          -0.5070    -0.0010     1.3780 c3         1 44Z       0.192800
     14 C8           0.7650    -0.0010     2.2490 c3         1 44Z       0.025000
     15 CG1          0.8240    -1.2410     3.1030 ca         1 44Z      -0.130300
     16 CD1          1.1700    -2.4540     2.5360 ca         1 44Z      -0.080500
     17 CE1          1.2240    -3.5920     3.3190 ca         1 44Z      -0.103000
     18 CZ1          0.9330    -3.5170     4.6690 ca         1 44Z      -0.027600
     19 Cl           1.0020    -4.9460     5.6530 cl         1 44Z      -0.022400
     20 CE2          0.5880    -2.3030     5.2360 ca         1 44Z      -0.103000
     21 CD2          0.5390    -1.1650     4.4530 ca         1 44Z      -0.080500
     22 CG2         -1.3250    -1.2400     1.6390 ca         1 44Z      -0.047300
     23 CD3         -0.9260    -2.4540     1.1110 ca         1 44Z      -0.136000
     24 CE3         -1.6740    -3.5930     1.3480 ca         1 44Z      -0.058000
     25 CZ2         -2.8210    -3.5190     2.1150 ca         1 44Z      -0.206000
     26 CE4         -3.2230    -2.3030     2.6460 ca         1 44Z       0.151100
     27 O4          -4.3520    -2.2280     3.3990 os         1 44Z      -0.307900
     28 CD4         -2.4690    -1.1630     2.4100 ca         1 44Z      -0.130000
     29 CG3          2.0960     0.0010    -1.2390 ca         1 44Z      -0.208900
     30 CD5          1.9380     1.0230    -2.1770 ca         1 44Z       0.029000
     31 CE5          2.6890     1.0210    -3.3310 ca         1 44Z      -0.264000
     32 CZ3          3.6050     0.0020    -3.5670 ca         1 44Z       0.211100
     33 CE6          3.7710    -1.0170    -2.6410 ca         1 44Z      -0.266000
     34 CD6          3.0250    -1.0210    -1.4750 ca         1 44Z       0.255100
     35 O6           3.1850    -2.0190    -0.5690 os         1 44Z      -0.305900
     36 C9           4.0680    -3.0840    -0.9250 c3         1 44Z       0.160100
     37 CM2          4.5940    -3.7580     0.3440 c3         1 44Z      -0.017600
     38 CM3          3.3130    -4.1110    -1.7720 c3         1 44Z      -0.017600
     39 O3           4.3420     0.0070    -4.7080 os         1 44Z      -0.309900
     40 CM1          4.1220     1.0860    -5.6180 c3         1 44Z       0.244700
     41 CM4         -5.0760    -3.4430     3.6050 c3         1 44Z       0.243700
     42 H21          5.6320     1.6760     3.3290 h1         1 44Z       0.023700
     43 H22          6.4760     0.5480     4.4000 h1         1 44Z       0.023700
     44 H32          5.5860    -0.4320     2.2080 h1         1 44Z       0.043200
     45 H31          5.1110    -1.2880     3.6890 h1         1 44Z       0.043200
     46 H42          1.7400     0.4330     3.6080 h1         1 44Z       0.106200
     47 H41          2.4470    -1.0330     4.3130 h1         1 44Z       0.106200
     48 H7          -1.0920     0.8920     1.5650 h1         1 44Z       0.050700
     49 H8           0.8070     0.8930     2.8590 h1         1 44Z       0.064700
     50 HD1          1.3980    -2.5130     1.4790 ha         1 44Z       0.135000
     51 HE1          1.4950    -4.5420     2.8750 ha         1 44Z       0.121000
     52 HE2          0.3630    -2.2440     6.2940 ha         1 44Z       0.121000
     53 HD2          0.2690    -0.2140     4.8960 ha         1 44Z       0.135000
     54 HD3         -0.0270    -2.5140     0.5100 ha         1 44Z       0.125000
     55 HE3         -1.3590    -4.5430     0.9330 ha         1 44Z       0.101000
     56 HZ2         -3.4070    -4.4120     2.3000 ha         1 44Z       0.120000
     57 HD4         -2.7800    -0.2110     2.8230 ha         1 44Z       0.117000
     58 HD5          1.2240     1.8180    -1.9960 ha         1 44Z       0.108000
     59 HE5          2.5650     1.8140    -4.0580 ha         1 44Z       0.124000
     60 HE6          4.4880    -1.8080    -2.8280 ha         1 44Z       0.139000
     61 H9           4.9000    -2.6880    -1.4950 h1         1 44Z       0.031700
     62 HM23         3.7590    -4.1040     0.9420 hc         1 44Z       0.012867
     63 HM21         5.1770    -3.0460     0.9160 hc         1 44Z       0.012867
     64 HM22         5.2180    -4.6010     0.0740 hc         1 44Z       0.012867
     65 HM33         2.5380    -3.6110    -2.3410 hc         1 44Z       0.012867
     66 HM32         2.8630    -4.8530    -1.1240 hc         1 44Z       0.012867
     67 HM31         4.0030    -4.5970    -2.4510 hc         1 44Z       0.012867
     68 HM12         4.3450     2.0250    -5.1260 h1         1 44Z      -0.001967
     69 HM13         4.7670     0.9690    -6.4810 h1         1 44Z      -0.001967
     70 HM11         3.0870     1.0830    -5.9380 h1         1 44Z      -0.001967
     71 HM43        -5.3890    -3.8430     2.6480 h1         1 44Z      -0.002633
     72 HM42        -5.9480    -3.2450     4.2160 h1         1 44Z      -0.002633
     73 HM41        -4.4400    -4.1630     4.1060 h1         1 44Z      -0.002633
     74 H1           4.9260     1.6130     5.8300 hn         1 44Z       0.183500
@<TRIPOS>BOND
     1     1    12 2   
     2     1    13 1   
     3     2     3 2   
     4     2     4 1   
     5     2     8 1   
     6     4     5 1   
     7     4    74 1   
     8     5     6 1   
     9     5    42 1   
    10     5    43 1   
    11     6     7 1   
    12     6    44 1   
    13     6    45 1   
    14     7     8 1   
    15     7     9 1   
    16     8    46 1   
    17     8    47 1   
    18     9    10 2   
    19     9    11 1   
    20    11    12 1   
    21    11    14 1   
    22    12    29 1   
    23    13    14 1   
    24    13    22 1   
    25    13    48 1   
    26    14    15 1   
    27    14    49 1   
    28    15    16 ar  
    29    15    21 ar  
    30    16    17 ar  
    31    16    50 1   
    32    17    18 ar  
    33    17    51 1   
    34    18    19 1   
    35    18    20 ar  
    36    20    21 ar  
    37    20    52 1   
    38    21    53 1   
    39    22    23 ar  
    40    22    28 ar  
    41    23    24 ar  
    42    23    54 1   
    43    24    25 ar  
    44    24    55 1   
    45    25    26 ar  
    46    25    56 1   
    47    26    27 1   
    48    26    28 ar  
    49    27    41 1   
    50    28    57 1   
    51    29    30 ar  
    52    29    34 ar  
    53    30    31 ar  
    54    30    58 1   
    55    31    32 ar  
    56    31    59 1   
    57    32    33 ar  
    58    32    39 1   
    59    33    34 ar  
    60    33    60 1   
    61    34    35 1   
    62    35    36 1   
    63    36    37 1   
    64    36    38 1   
    65    36    61 1   
    66    37    62 1   
    67    37    63 1   
    68    37    64 1   
    69    38    65 1   
    70    38    66 1   
    71    38    67 1   
    72    39    40 1   
    73    40    68 1   
    74    40    69 1   
    75    40    70 1   
    76    41    71 1   
    77    41    72 1   
    78    41    73 1   
@<TRIPOS>SUBSTRUCTURE
     1 44Z         1 TEMP              0 ****  ****    0 ROOT
