@<TRIPOS>MOLECULE
molecule
   74    78     1     0     0
SMALL
bcc


@<TRIPOS>ATOM
      1 N            0.0000     0.0000     0.0000 n2         1 44Z      -0.623900
      2 C1           3.2860     0.7880     5.0260 c          1 44Z       0.688500
      3 O1           2.5850     1.1670     5.9400 o          1 44Z      -0.659500
      4 N1           4.5780     1.1180     5.0340 ns         1 44Z      -0.569900
      5 C2           5.5170     0.8070     3.9660 c3         1 44Z       0.083000
      6 C3           5.0130    -0.3680     3.1250 c3         1 44Z       0.111000
      7 N2           3.5950    -0.1290     2.8070 n          1 44Z      -0.506800
      8 C4           2.6580    -0.0390     3.9360 c3         1 44Z      -0.023000
      9 C5           3.1730    -0.0010     1.5330 c          1 44Z       0.816100
     10 O5           3.9820     0.1150     0.6340 o          1 44Z      -0.623100
     11 N3           1.8540     0.0000     1.2580 n          1 44Z      -0.427300
     12 C6           1.2930     0.0000     0.0000 ce         1 44Z       0.553500
     13 C7          -0.5070    -0.0010     1.3780 c3         1 44Z       0.161800
     14 C8           0.7650    -0.0010     2.2490 c3         1 44Z       0.110000
     15 CG1          0.8240    -1.2410     3.1030 ca         1 44Z      -0.121300
     16 CD1          1.1700    -2.4540     2.5360 ca         1 44Z      -0.099000
     17 CE1          1.2240    -3.5920     3.3190 ca         1 44Z      -0.129000
     18 CZ1          0.9330    -3.5170     4.6690 ca         1 44Z       0.036400
     19 Cl           1.0020    -4.9460     5.6530 cl         1 44Z      -0.109400
     20 CE2          0.5880    -2.3030     5.2360 ca         1 44Z      -0.129000
     21 CD2          0.5390    -1.1650     4.4530 ca         1 44Z      -0.099000
     22 CG2         -1.3250    -1.2400     1.6390 ca         1 44Z      -0.042300
     23 CD3         -0.9260    -2.4540     1.1110 ca         1 44Z      -0.142000
     24 CE3         -1.6740    -3.5930     1.3480 ca         1 44Z      -0.093000
     25 CZ2         -2.8210    -3.5190     2.1150 ca         1 44Z      -0.214000
     26 CE4         -3.2230    -2.3030     2.6460 ca         1 44Z       0.140100
     27 O4          -4.3520    -2.2280     3.3990 os         1 44Z      -0.329900
     28 CD4         -2.4690    -1.1630     2.4100 ca         1 44Z      -0.147000
     29 CG3          2.0960     0.0010    -1.2390 ca         1 44Z      -0.190900
     30 CD5          1.9380     1.0230    -2.1770 ca         1 44Z      -0.008000
     31 CE5          2.6890     1.0210    -3.3310 ca         1 44Z      -0.269000
     32 CZ3          3.6050     0.0020    -3.5670 ca         1 44Z       0.197100
     33 CE6          3.7710    -1.0170    -2.6410 ca         1 44Z      -0.264000
     34 CD6          3.0250    -1.0210    -1.4750 ca         1 44Z       0.241100
     35 O6           3.1850    -2.0190    -0.5690 os         1 44Z      -0.322900
     36 C9           4.0680    -3.0840    -0.9250 c3         1 44Z       0.135100
     37 CM2          4.5940    -3.7580     0.3440 c3         1 44Z      -0.105100
     38 CM3          3.3130    -4.1110    -1.7720 c3         1 44Z      -0.105100
     39 O3           4.3420     0.0070    -4.7080 os         1 44Z      -0.327900
     40 CM1          4.1220     1.0860    -5.6180 c3         1 44Z       0.128700
     41 CM4         -5.0760    -3.4430     3.6050 c3         1 44Z       0.129700
     42 H21          5.6320     1.6760     3.3290 h1         1 44Z       0.052200
     43 H22          6.4760     0.5480     4.4000 h1         1 44Z       0.052200
     44 H32          5.5860    -0.4320     2.2080 h1         1 44Z       0.072200
     45 H31          5.1110    -1.2880     3.6890 h1         1 44Z       0.072200
     46 H42          1.7400     0.4330     3.6080 h1         1 44Z       0.108700
     47 H41          2.4470    -1.0330     4.3130 h1         1 44Z       0.108700
     48 H7          -1.0920     0.8920     1.5650 h1         1 44Z       0.088700
     49 H8           0.8070     0.8930     2.8590 h1         1 44Z       0.085700
     50 HD1          1.3980    -2.5130     1.4790 ha         1 44Z       0.157000
     51 HE1          1.4950    -4.5420     2.8750 ha         1 44Z       0.149000
     52 HE2          0.3630    -2.2440     6.2940 ha         1 44Z       0.149000
     53 HD2          0.2690    -0.2140     4.8960 ha         1 44Z       0.157000
     54 HD3         -0.0270    -2.5140     0.5100 ha         1 44Z       0.143000
     55 HE3         -1.3590    -4.5430     0.9330 ha         1 44Z       0.130000
     56 HZ2         -3.4070    -4.4120     2.3000 ha         1 44Z       0.134000
     57 HD4         -2.7800    -0.2110     2.8230 ha         1 44Z       0.142000
     58 HD5          1.2240     1.8180    -1.9960 ha         1 44Z       0.145000
     59 HE5          2.5650     1.8140    -4.0580 ha         1 44Z       0.138000
     60 HE6          4.4880    -1.8080    -2.8280 ha         1 44Z       0.153000
     61 H9           4.9000    -2.6880    -1.4950 h1         1 44Z       0.057700
     62 HM23         3.7590    -4.1040     0.9420 hc         1 44Z       0.046367
     63 HM21         5.1770    -3.0460     0.9160 hc         1 44Z       0.046367
     64 HM22         5.2180    -4.6010     0.0740 hc         1 44Z       0.046367
     65 HM33         2.5380    -3.6110    -2.3410 hc         1 44Z       0.046367
     66 HM32         2.8630    -4.8530    -1.1240 hc         1 44Z       0.046367
     67 HM31         4.0030    -4.5970    -2.4510 hc         1 44Z       0.046367
     68 HM12         4.3450     2.0250    -5.1260 h1         1 44Z       0.043367
     69 HM13         4.7670     0.9690    -6.4810 h1         1 44Z       0.043367
     70 HM11         3.0870     1.0830    -5.9380 h1         1 44Z       0.043367
     71 HM43        -5.3890    -3.8430     2.6480 h1         1 44Z       0.041033
     72 HM42        -5.9480    -3.2450     4.2160 h1         1 44Z       0.041033
     73 HM41        -4.4400    -4.1630     4.1060 h1         1 44Z       0.041033
     74 H1           4.9260     1.6130     5.8300 hn         1 44Z       0.325500
@<TRIPOS>BOND
     1    40    39 1
     2    39    32 1
     3    32    31 ar
     4    32    33 ar
     5    31    30 ar
     6    33    34 ar
     7    36    37 1
     8    36    38 1
     9    36    35 1
    10    34    35 1
    11    34    29 ar
    12    30    29 ar
    13    29    12 1
    14    12     1 2
    15    12    11 1
    16     1    13 1
    17     3     2 2
    18     6     7 1
    19     6     5 1
    20     2     8 1
    21     2     4 1
    22     8     7 1
    23    17    16 ar
    24    17    18 ar
    25    16    15 ar
    26     7     9 1
    27     4     5 1
    28    23    24 ar
    29    23    22 ar
    30    11     9 1
    31    11    14 1
    32     9    10 2
    33    24    25 ar
    34    13    22 1
    35    13    14 1
    36    22    28 ar
    37    19    18 1
    38    18    20 ar
    39    15    14 1
    40    15    21 ar
    41    25    26 ar
    42    28    26 ar
    43    20    21 ar
    44    26    27 1
    45    27    41 1
    46     4    74 1
    47     5    42 1
    48     5    43 1
    49     6    44 1
    50     6    45 1
    51     8    46 1
    52     8    47 1
    53    13    48 1
    54    14    49 1
    55    16    50 1
    56    17    51 1
    57    20    52 1
    58    21    53 1
    59    23    54 1
    60    24    55 1
    61    25    56 1
    62    28    57 1
    63    30    58 1
    64    31    59 1
    65    33    60 1
    66    36    61 1
    67    37    62 1
    68    37    63 1
    69    37    64 1
    70    38    65 1
    71    38    66 1
    72    38    67 1
    73    40    68 1
    74    40    69 1
    75    40    70 1
    76    41    71 1
    77    41    72 1
    78    41    73 1
@<TRIPOS>SUBSTRUCTURE
     1 44Z         1 TEMP              0 ****  ****    0 ROOT
