@<TRIPOS>MOLECULE
450
   78    82     1     0     0
SMALL
bcc


@<TRIPOS>ATOM
      1 C1           0.0000     0.0000     0.0000 c3         1 450       0.477500
      2 O1          -0.4710     0.8620    -1.0360 oh         1 450      -0.564800
      3 N2           1.4500     0.0000     0.0000 n3         1 450      -0.506100
      4 C2           1.8700     1.3010    -0.5380 c3         1 450       0.117600
      5 C3           1.8030     0.0000     1.4250 c3         1 450       0.107500
      6 C4           1.8880    -1.3250     2.0380 c3         1 450       0.154100
      7 O4           2.8570    -2.1090     1.3380 oh         1 450      -0.564800
      8 C5           0.5020    -2.0290     1.9650 c3         1 450       0.154100
      9 O5          -0.5110    -1.1490     2.4520 oh         1 450      -0.564800
     10 C6           0.2120    -2.3860     0.5260 c3         1 450       0.107500
     11 N7          -0.5210    -1.3560    -0.2260 n3         1 450      -0.506100
     12 C7          -0.3240    -1.6530    -1.6500 c3         1 450       0.117600
     13 C20          3.1820     1.1430    -1.2650 ca         1 450      -0.013800
     14 C21          3.2090     0.5740    -2.5230 ca         1 450      -0.139000
     15 C22          4.4100     0.4270    -3.1930 ca         1 450      -0.060500
     16 C23          5.5860     0.8510    -2.6070 ca         1 450      -0.188500
     17 C28          5.5610     1.4240    -1.3410 ca         1 450       0.050100
     18 N29          6.7500     1.8520    -0.7450 nv         1 450      -0.468200
     19 C29          4.3550     1.5640    -0.6690 ca         1 450      -0.198500
     20 C31          3.1560     0.6940     1.5860 c3         1 450      -0.011600
     21 C32          3.5280     0.7400     3.0450 ca         1 450      -0.082300
     22 C33          4.3550    -0.2300     3.5780 ca         1 450      -0.106250
     23 C34          4.6950    -0.1890     4.9170 ca         1 450      -0.097250
     24 C35          4.2100     0.8240     5.7230 ca         1 450      -0.106500
     25 C36          3.3840     1.7950     5.1890 ca         1 450      -0.097250
     26 C37          3.0460     1.7560     3.8490 ca         1 450      -0.106250
     27 C61         -0.6100    -3.6760     0.5080 c3         1 450      -0.011600
     28 C62         -0.5780    -4.2720    -0.8760 ca         1 450      -0.082300
     29 C63          0.5860    -4.8440    -1.3560 ca         1 450      -0.106250
     30 C64          0.6140    -5.3900    -2.6260 ca         1 450      -0.097250
     31 C65         -0.5200    -5.3660    -3.4150 ca         1 450      -0.106500
     32 C66         -1.6830    -4.7950    -2.9350 ca         1 450      -0.097250
     33 C67         -1.7140    -4.2530    -1.6630 ca         1 450      -0.106250
     34 C70         -1.3870    -0.9580    -2.4600 ca         1 450      -0.013800
     35 C71         -2.7080    -1.3410    -2.3380 ca         1 450      -0.198500
     36 C72         -3.6900    -0.6970    -3.0800 ca         1 450       0.050100
     37 N79         -5.0260    -1.0780    -2.9540 nv         1 450      -0.468200
     38 C77         -3.3360     0.3250    -3.9530 ca         1 450      -0.188500
     39 C78         -2.0120     0.6990    -4.0760 ca         1 450      -0.060500
     40 C79         -1.0390     0.0580    -3.3310 ca         1 450      -0.139000
     41 H1          -0.3540     0.3610     0.9580 h3         1 450       0.034700
     42 HO1         -1.0300     1.5250    -0.6650 ho         1 450       0.394000
     43 H21A         1.1180     1.6680    -1.2250 h1         1 450       0.053950
     44 H22A         1.9900     2.0060     0.2760 h1         1 450       0.053950
     45 H3           1.0540     0.5720     1.9600 h1         1 450       0.054700
     46 H4           2.1830    -1.2220     3.0750 h1         1 450       0.016200
     47 HO4          3.1170    -2.8400     1.8750 ho         1 450       0.381500
     48 H5           0.5230    -2.9320     2.5630 h1         1 450       0.016200
     49 HO5         -0.8010    -1.4420     3.3010 ho         1 450       0.381500
     50 H6           1.1550    -2.5670     0.0240 h1         1 450       0.054700
     51 H71A         0.6530    -1.3010    -1.9600 h1         1 450       0.053950
     52 H72         -0.3900    -2.7220    -1.8090 h1         1 450       0.053950
     53 H21          2.2880     0.2410    -2.9860 ha         1 450       0.112500
     54 H22          4.4270    -0.0200    -4.1800 ha         1 450       0.095000
     55 H23          6.5260     0.7350    -3.1320 ha         1 450       0.104000
     56 HN21         7.6060     1.3700    -0.9320 hn         1 450       0.263300
     57 HN22         6.7440     2.6390    -0.1260 hn         1 450       0.263300
     58 H29          4.3320     2.0110     0.3180 ha         1 450       0.124500
     59 H311         3.9110     0.1450     1.0380 hc         1 450       0.045950
     60 H312         3.0920     1.7040     1.1990 hc         1 450       0.045950
     61 H33          4.7350    -1.0240     2.9470 ha         1 450       0.112000
     62 H34          5.3430    -0.9500     5.3350 ha         1 450       0.102500
     63 H35          4.4760     0.8550     6.7720 ha         1 450       0.103000
     64 H36          3.0050     2.5900     5.8200 ha         1 450       0.102500
     65 H37          2.3980     2.5170     3.4310 ha         1 450       0.112000
     66 H611        -1.6340    -3.4560     0.7830 hc         1 450       0.045950
     67 H612        -0.1900    -4.3820     1.2140 hc         1 450       0.045950
     68 H63          1.4750    -4.8630    -0.7380 ha         1 450       0.112000
     69 H64          1.5260    -5.8380    -3.0020 ha         1 450       0.102500
     70 H65         -0.4970    -5.7920    -4.4100 ha         1 450       0.103000
     71 H66         -2.5730    -4.7790    -3.5520 ha         1 450       0.102500
     72 H67         -2.6260    -3.8060    -1.2870 ha         1 450       0.112000
     73 H71         -2.9830    -2.1190    -1.6370 ha         1 450       0.124500
     74 HN71        -5.2800    -1.8120    -2.3230 hn         1 450       0.263300
     75 HN72        -5.7310    -0.6160    -3.4940 hn         1 450       0.263300
     76 H77         -4.0980     0.8290    -4.5360 ha         1 450       0.104000
     77 H78         -1.7350     1.4950    -4.7560 ha         1 450       0.095000
     78 H79         -0.0010     0.3530    -3.4290 ha         1 450       0.112500
@<TRIPOS>BOND
     1     1     2 1   
     2     1     3 1   
     3     1    11 1   
     4     1    41 1   
     5     2    42 1   
     6     3     4 1   
     7     3     5 1   
     8     4    13 1   
     9     4    43 1   
    10     4    44 1   
    11     5     6 1   
    12     5    20 1   
    13     5    45 1   
    14     6     7 1   
    15     6     8 1   
    16     6    46 1   
    17     7    47 1   
    18     8     9 1   
    19     8    10 1   
    20     8    48 1   
    21     9    49 1   
    22    10    11 1   
    23    10    27 1   
    24    10    50 1   
    25    11    12 1   
    26    12    34 1   
    27    12    51 1   
    28    12    52 1   
    29    13    14 ar  
    30    13    19 ar  
    31    14    15 ar  
    32    14    53 1   
    33    15    16 ar  
    34    15    54 1   
    35    16    17 ar  
    36    16    55 1   
    37    17    18 1   
    38    17    19 ar  
    39    18    56 1   
    40    18    57 1   
    41    19    58 1   
    42    20    21 1   
    43    20    59 1   
    44    20    60 1   
    45    21    22 ar  
    46    21    26 ar  
    47    22    23 ar  
    48    22    61 1   
    49    23    24 ar  
    50    23    62 1   
    51    24    25 ar  
    52    24    63 1   
    53    25    26 ar  
    54    25    64 1   
    55    26    65 1   
    56    27    28 1   
    57    27    66 1   
    58    27    67 1   
    59    28    29 ar  
    60    28    33 ar  
    61    29    30 ar  
    62    29    68 1   
    63    30    31 ar  
    64    30    69 1   
    65    31    32 ar  
    66    31    70 1   
    67    32    33 ar  
    68    32    71 1   
    69    33    72 1   
    70    34    35 ar  
    71    34    40 ar  
    72    35    36 ar  
    73    35    73 1   
    74    36    37 1   
    75    36    38 ar  
    76    37    74 1   
    77    37    75 1   
    78    38    39 ar  
    79    38    76 1   
    80    39    40 ar  
    81    39    77 1   
    82    40    78 1   
@<TRIPOS>SUBSTRUCTURE
     1 450         1 TEMP              0 ****  ****    0 ROOT
