@<TRIPOS>MOLECULE
451
   57    59     1     0     0
SMALL
bcc


@<TRIPOS>ATOM
      1 C1         -0.2150   -0.0030    0.0800 ca        1 451     -0.213000
      2 C2          1.1860   -0.1590    0.2280 ca        1 451      0.102600
      3 C3          1.7370   -0.2240    1.5240 ca        1 451     -0.229000
      4 C4          0.9010   -0.1390    2.6430 ca        1 451      0.150100
      5 C5         -0.4960   -0.0060    2.4830 ca        1 451      0.029100
      6 C6         -1.0360    0.0710    1.1970 ca        1 451     -0.089000
      7 O7         -1.3360   -0.0740    3.5840 os        1 451     -0.322900
      8 C8         -1.8510    1.1900    4.0140 c3        1 451      0.124400
      9 C9         -0.8350    1.9120    4.8930 c3        1 451      0.087400
     10 O10        -1.5600    2.4220    6.0140 os        1 451     -0.422600
     11 C11        -0.7410    2.7090    7.1360 c3        1 451      0.129400
     12 C12        -0.5150    1.4410    7.9550 c3        1 451      0.092400
     13 O13         0.2320    1.8600    9.1120 os        1 451     -0.351900
     14 C14         0.5070    0.8120    9.9800 ca        1 451      0.061100
     15 C15         1.5760   -0.0730    9.7430 ca        1 451      0.087100
     16 O16         2.2960   -0.0930    8.5610 os        1 451     -0.350900
     17 C17         2.9090    1.1620    8.2160 c3        1 451      0.093400
     18 C18         4.0830    0.8350    7.3010 c3        1 451      0.124400
     19 O19         3.6960    0.7450    5.9400 os        1 451     -0.424600
     20 C20         2.9750   -0.4490    5.6320 c3        1 451      0.121400
     21 C21         2.7520   -0.4340    4.1230 c3        1 451      0.119400
     22 O22         1.3530   -0.1630    3.9430 os        1 451     -0.321900
     23 C23        -0.2360    0.7140   11.1640 ca        1 451     -0.120000
     24 C24         0.0840   -0.2660   12.0990 ca        1 451     -0.135000
     25 C25         1.1350   -1.1530   11.8600 ca        1 451     -0.121000
     26 C26         1.8870   -1.0600   10.6920 ca        1 451     -0.133000
     27 N27         1.9680   -0.2330   -0.9360 n         1 451     -0.474100
     28 C28         3.3340   -0.4650   -1.0360 c         1 451      0.667100
     29 O29         4.0740   -0.6290   -0.0490 o         1 451     -0.589100
     30 C30         3.8930   -0.5070   -2.4410 c3        1 451     -0.179100
     31 H1         -0.6700    0.0550   -0.9190 ha        1 451      0.131000
     32 H3          2.8240   -0.3410    1.6570 ha        1 451      0.181000
     33 H6         -2.1240    0.1800    1.0790 ha        1 451      0.145000
     34 H8         -2.7620    0.9110    4.6120 h1        1 451      0.063200
     35 H8A        -2.1440    1.8180    3.1360 h1        1 451      0.063200
     36 H9         -0.3670    2.7780    4.3550 h1        1 451      0.053700
     37 H9A        -0.0300    1.1990    5.2190 h1        1 451      0.053700
     38 H11         0.2390    3.1570    6.8270 h1        1 451      0.058700
     39 H11A       -1.3300    3.4580    7.7300 h1        1 451      0.058700
     40 H12        -1.4900    0.9950    8.2770 h1        1 451      0.053200
     41 H12A        0.0800    0.6790    7.3850 h1        1 451      0.053200
     42 H17         3.2650    1.6880    9.1380 h1        1 451      0.060200
     43 H17A        2.1440    1.7930    7.6890 h1        1 451      0.060200
     44 H18         4.8120    1.6900    7.3140 h1        1 451      0.061200
     45 H18A        4.5870   -0.1110    7.6330 h1        1 451      0.061200
     46 H20         2.0020   -0.4550    6.1940 h1        1 451      0.056200
     47 H20A        3.5850   -1.3430    5.9240 h1        1 451      0.056200
     48 H21         3.3600    0.3730    3.6370 h1        1 451      0.062200
     49 H21A        2.9970   -1.4320    3.6760 h1        1 451      0.062200
     50 H23        -1.0620    1.4180   11.3390 ha        1 451      0.148000
     51 H24        -0.4990   -0.3430   13.0290 ha        1 451      0.136000
     52 H25         1.3760   -1.9300   12.6010 ha        1 451      0.136000
     53 H26         2.7160   -1.7540   10.4940 ha        1 451      0.148000
     54 HN27        1.4660   -0.1350   -1.7910 hn        1 451      0.316500
     55 H30         3.7200    0.4650   -2.9620 hc        1 451      0.069700
     56 H30A        4.9930   -0.6940   -2.3790 hc        1 451      0.069700
     57 H30B        3.4180   -1.3290   -3.0290 hc        1 451      0.069700
@<TRIPOS>BOND
     1    1    2 ar  
     2    1    6 ar  
     3    1   31 1   
     4    2    3 ar  
     5    2   27 1   
     6    3    4 ar  
     7    3   32 1   
     8    4    5 ar  
     9    4   22 1   
    10    5    6 ar  
    11    5    7 1   
    12    6   33 1   
    13    7    8 1   
    14    8    9 1   
    15    8   34 1   
    16    8   35 1   
    17    9   10 1   
    18    9   36 1   
    19    9   37 1   
    20   10   11 1   
    21   11   12 1   
    22   11   38 1   
    23   11   39 1   
    24   12   13 1   
    25   12   40 1   
    26   12   41 1   
    27   13   14 1   
    28   14   15 ar  
    29   14   23 ar  
    30   15   16 1   
    31   15   26 ar  
    32   16   17 1   
    33   17   18 1   
    34   17   42 1   
    35   17   43 1   
    36   18   19 1   
    37   18   44 1   
    38   18   45 1   
    39   19   20 1   
    40   20   21 1   
    41   20   46 1   
    42   20   47 1   
    43   21   22 1   
    44   21   48 1   
    45   21   49 1   
    46   23   24 ar  
    47   23   50 1   
    48   24   25 ar  
    49   24   51 1   
    50   25   26 ar  
    51   25   52 1   
    52   26   53 1   
    53   27   28 1   
    54   27   54 1   
    55   28   29 2   
    56   28   30 1   
    57   30   55 1   
    58   30   56 1   
    59   30   57 1   
@<TRIPOS>SUBSTRUCTURE
     1 451         1 TEMP              0 ****  ****    0 ROOT
