@<TRIPOS>MOLECULE
molecule
   38    39     1     0     0
SMALL
bcc


@<TRIPOS>ATOM
      1 C1           0.0000     0.0000     0.0000 c3         1 452      -0.189100
      2 C2           1.5070     0.0000     0.0000 c          1 452       0.588700
      3 O1           2.1140     0.0000     1.0510 o          1 452      -0.535100
      4 C3           2.2400     0.0020    -1.2690 ca         1 452      -0.262600
      5 C4           1.5490    -0.1170    -2.4820 ca         1 452      -0.072000
      6 C5           2.2450    -0.1140    -3.6720 ca         1 452       0.040900
      7 C6           3.6290     0.0050    -3.6750 ca         1 452       0.069400
      8 C7           4.3240     0.1230    -2.4860 ca         1 452      -0.208000
      9 C8           3.6410     0.1280    -1.2780 ca         1 452       0.265600
     10 N1           4.3380     0.2510    -0.0830 nu         1 452      -0.775600
     11 C9           5.7810     0.4990    -0.0990 c3         1 452       0.141800
     12 C10          6.2920     0.5910     1.3160 c          1 452       0.643100
     13 O2           5.5240     0.4630     2.2460 o          1 452      -0.624100
     14 N2           7.6000     0.8160     1.5480 ns         1 452      -0.434100
     15 C11          8.0870     0.8110     2.8530 ca         1 452       0.064600
     16 C12          7.3060     1.3000     3.8900 ca         1 452      -0.156000
     17 C13          7.7900     1.2950     5.1830 ca         1 452      -0.138000
     18 C14          9.0570     0.8030     5.4550 ca         1 452      -0.176000
     19 C15          9.8460     0.3110     4.4370 ca         1 452      -0.081000
     20 C16          9.3680     0.3060     3.1250 ca         1 452      -0.130600
     21 C17         10.2050    -0.2220     2.0340 c          1 452       0.892200
     22 O3          11.3920    -0.7940     2.3110 o          1 452      -0.841800
     23 O4           9.8240    -0.1410     0.8820 o          1 452      -0.841800
     24 Cl1          4.4920     0.0060    -5.1810 cl         1 452      -0.092400
     25 F1           1.5770    -0.2290    -4.8410 f          1 452      -0.143900
     26 H11         -0.3610    -0.9170    -0.4490 hc         1 452       0.059033
     27 H12A        -0.3610     0.0700     1.0190 hc         1 452       0.059033
     28 H13A        -0.3610     0.8480    -0.5700 hc         1 452       0.059033
     29 H4           0.4700    -0.2100    -2.4850 ha         1 452       0.144000
     30 H7           5.4030     0.2180    -2.4980 ha         1 452       0.163000
     31 HN1          3.8600     0.1360     0.7880 hn         1 452       0.506800
     32 H91          6.2820    -0.3150    -0.6110 h1         1 452       0.063200
     33 H92          5.9830     1.4290    -0.6170 h1         1 452       0.063200
     34 HN2          8.2130     1.0300     0.7860 hn         1 452       0.365500
     35 H12          6.3150     1.6860     3.6850 ha         1 452       0.144000
     36 H13          7.1770     1.6780     5.9900 ha         1 452       0.107000
     37 H14          9.4290     0.8040     6.4730 ha         1 452       0.106000
     38 H15         10.8350    -0.0740     4.6560 ha         1 452       0.155000
@<TRIPOS>BOND
     1     1     2 1   
     2     1    26 1   
     3     1    27 1   
     4     1    28 1   
     5     2     4 1   
     6     2     3 2   
     7     4     5 ar  
     8     4     9 ar  
     9     5     6 ar  
    10     5    29 1   
    11     6    25 1   
    12     6     7 ar  
    13     7    24 1   
    14     7     8 ar  
    15     8     9 ar  
    16     8    30 1   
    17     9    10 1   
    18    10    11 1   
    19    10    31 1   
    20    11    12 1   
    21    11    32 1   
    22    11    33 1   
    23    12    13 2   
    24    12    14 1   
    25    14    15 1   
    26    14    34 1   
    27    15    16 ar  
    28    15    20 ar  
    29    16    17 ar  
    30    16    35 1   
    31    17    18 ar  
    32    17    36 1   
    33    18    19 ar  
    34    18    37 1   
    35    19    20 ar  
    36    19    38 1   
    37    20    21 1   
    38    21    23 1   
    39    21    22 1   
@<TRIPOS>SUBSTRUCTURE
     1 452         1 TEMP              0 ****  ****    0 ROOT
