@<TRIPOS>MOLECULE
453
   59    63     1     0     0
SMALL
bcc


@<TRIPOS>ATOM
      1 OBC          0.0000     0.0000     0.0000 o          1 453      -0.629100
      2 CBB          1.2150     0.0000     0.0000 c          1 453       0.592700
      3 NBD          1.8900     0.0000     1.1670 ns         1 453      -0.188900
      4 CBE          1.1580     0.0000     2.4360 c3         1 453       0.010700
      5 CBF          2.1380     0.0000     3.5820 ca         1 453       0.336600
      6 CBK          2.5030     1.1970     4.1680 ca         1 453      -0.201300
      7 CBJ          3.4050     1.1860     5.2210 ca         1 453      -0.070000
      8 CBI          3.9080    -0.0340     5.6460 ca         1 453      -0.212300
      9 CBH          3.4960    -1.1900     5.0110 ca         1 453       0.403200
     10 NBG          2.6320    -1.1430     4.0150 nb         1 453      -0.559000
     11 CAY          1.9540    -0.0070    -1.2790 ca         1 453      -0.184600
     12 CAZ          3.3510    -0.0130    -1.2830 ca         1 453      -0.039000
     13 CAX          1.2580    -0.0130    -2.4920 ca         1 453       0.188900
     14 FBA         -0.0920    -0.0110    -2.4980 f          1 453      -0.104900
     15 CAW          1.9580    -0.0200    -3.6850 ca         1 453      -0.152000
     16 CAV          3.3390    -0.0200    -3.6790 ca         1 453      -0.044000
     17 CAU          4.0340    -0.0200    -2.4810 ca         1 453      -0.165300
     18 CAN          5.5400    -0.0260    -2.4860 c3         1 453       0.168200
     19 NAO          5.9970     1.1270    -3.2790 ns         1 453      -0.186900
     20 CAP          6.7860     0.9000    -4.3470 c          1 453       0.595500
     21 OAT          7.1680     1.8460    -5.0080 o          1 453      -0.720500
     22 NAQ          7.1620    -0.3340    -4.7050 ns         1 453      -0.005100
     23 CAR          6.7900    -1.4650    -4.0330 c2         1 453      -0.071600
     24 CAS          7.2690    -2.8080    -4.5190 c3         1 453       0.044100
     25 CAM          6.0000    -1.3970    -2.9400 ce         1 453      -0.324400
     26 CAK          5.6140    -2.5680    -2.2430 c          1 453       0.617300
     27 OAL          6.2630    -2.9480    -1.2860 o          1 453      -0.637100
     28 NAJ          4.5270    -3.2610    -2.6380 ns         1 453      -0.023100
     29 CAG          4.0460    -4.3160    -1.8530 ca         1 453      -0.141400
     30 CAF          2.6910    -4.5760    -1.8080 ca         1 453      -0.043000
     31 CAH          4.9390    -5.1040    -1.1270 ca         1 453      -0.070000
     32 CAI          4.4910    -6.1380    -0.3570 ca         1 453      -0.103000
     33 CAE          3.1290    -6.4180    -0.2890 ca         1 453      -0.189200
     34 CAD          2.2190    -5.6320    -1.0200 ca         1 453      -0.251900
     35 NAA          2.3880    -7.3630     0.3770 na         1 453       0.410900
     36 NAB          1.0350    -7.1760     0.0770 nc         1 453      -0.632100
     37 CAC          0.8920    -6.1750    -0.7440 cd         1 453       0.438800
     38 H1           2.8900    -0.0230     1.1670 hn         1 453       0.180500
     39 H2           0.5350    -0.8840     2.4940 h1         1 453       0.037700
     40 H3           0.5350     0.8850     2.4930 h1         1 453       0.037700
     41 H4           2.0890     2.1320     3.8100 ha         1 453       0.119000
     42 H5           3.7090     2.1080     5.7000 ha         1 453       0.111000
     43 H6           4.6160    -0.0800     6.4640 ha         1 453       0.115000
     44 H7           3.8830    -2.1470     5.3380 h4         1 453      -0.016900
     45 H8           3.8960    -0.0130    -0.3480 ha         1 453       0.117000
     46 H9           1.4210    -0.0220    -4.6260 ha         1 453       0.126000
     47 H10          3.8820    -0.0250    -4.6160 ha         1 453       0.110000
     48 H11          5.8830     0.1170    -1.4680 h1         1 453       0.036700
     49 H12          5.7290     2.0590    -3.0290 hn         1 453       0.213500
     50 H13          7.7490    -0.4350    -5.5100 hn         1 453       0.187500
     51 H14          6.4540    -3.3270    -5.0080 hc         1 453       0.024367
     52 H15          7.6160    -3.3940    -3.6760 hc         1 453       0.024367
     53 H16          8.0820    -2.6680    -5.2210 hc         1 453       0.024367
     54 H17          4.0940    -3.0530    -3.5160 hn         1 453       0.168500
     55 H18          2.0180    -4.0590    -2.4810 ha         1 453       0.106000
     56 H19          6.0010    -4.8960    -1.1780 ha         1 453       0.150000
     57 H20          5.1960    -6.7420     0.2010 ha         1 453       0.106000
     58 H21          2.7570    -8.0670     0.9840 hn         1 453       0.152700
     59 H22         -0.0440    -5.8060    -1.1440 h4         1 453       0.016800
@<TRIPOS>BOND
     1     1     2 2   
     2     2     3 1   
     3     2    11 1   
     4     3     4 1   
     5     3    38 1   
     6     4     5 1   
     7     4    39 1   
     8     4    40 1   
     9     5     6 ar  
    10     5    10 ar  
    11     6     7 ar  
    12     6    41 1   
    13     7     8 ar  
    14     7    42 1   
    15     8     9 ar  
    16     8    43 1   
    17     9    10 ar  
    18     9    44 1   
    19    11    12 ar  
    20    11    13 ar  
    21    12    17 ar  
    22    12    45 1   
    23    13    14 1   
    24    13    15 ar  
    25    15    16 ar  
    26    15    46 1   
    27    16    17 ar  
    28    16    47 1   
    29    17    18 1   
    30    18    19 1   
    31    18    25 1   
    32    18    48 1   
    33    19    20 1   
    34    19    49 1   
    35    20    21 2   
    36    20    22 1   
    37    22    23 1   
    38    22    50 1   
    39    23    24 1   
    40    23    25 2   
    41    24    51 1   
    42    24    52 1   
    43    24    53 1   
    44    25    26 1   
    45    26    27 2   
    46    26    28 1   
    47    28    29 1   
    48    28    54 1   
    49    29    30 ar  
    50    29    31 ar  
    51    30    34 ar  
    52    30    55 1   
    53    31    32 ar  
    54    31    56 1   
    55    32    33 ar  
    56    32    57 1   
    57    33    34 ar  
    58    33    35 1   
    59    34    37 1   
    60    35    36 1   
    61    35    58 1   
    62    36    37 2   
    63    37    59 1   
@<TRIPOS>SUBSTRUCTURE
     1 453         1 TEMP              0 ****  ****    0 ROOT
