@<TRIPOS>MOLECULE
454
   41    44     1     0     0
SMALL
bcc


@<TRIPOS>ATOM
      1 C1           0.0000     0.0000     0.0000 ca         1 454      -0.073500
      2 N1           0.2130     0.6250     5.2260 n2         1 454      -0.475900
      3 C2           1.3820     0.0000     0.0000 ca         1 454      -0.089750
      4 N2           2.2510     1.8140     5.1040 nh         1 454      -0.382600
      5 C3           2.0730     0.0000     1.1970 ca         1 454      -0.092500
      6 N3           3.4150     0.7200     3.5590 n2         1 454      -0.449900
      7 C4           1.3820     0.0020     2.3940 ca         1 454      -0.123300
      8 N4           4.4470     2.6170     4.5020 nz         1 454       0.226400
      9 C5          -0.0000     0.0030     2.3950 ca         1 454      -0.092500
     10 C6          -0.6920     0.0010     1.1970 ca         1 454      -0.089750
     11 C7           2.1360     0.0010     3.6990 c3         1 454       0.224500
     12 C8           1.3900     0.7940     4.7410 c2         1 454       0.421200
     13 C9          -0.2930     1.5770     6.2240 c3         1 454       0.147800
     14 C10          0.8600     2.1350     7.0600 c3         1 454      -0.059400
     15 C11          1.8940     2.7980     6.1380 c3         1 454       0.164800
     16 C12          3.4050     1.7280     4.3790 c2         1 454       0.222100
     17 C13          2.3700    -1.4110     4.1730 ca         1 454      -0.123300
     18 C14          3.5270    -2.0760     3.8130 ca         1 454      -0.092500
     19 C15          3.7420    -3.3710     4.2470 ca         1 454      -0.089750
     20 C16          2.8010    -4.0000     5.0410 ca         1 454      -0.073500
     21 C17          1.6460    -3.3330     5.4010 ca         1 454      -0.089750
     22 C18          1.4320    -2.0370     4.9720 ca         1 454      -0.092500
     23 H1          -0.5410    -0.0010    -0.9380 ha         1 454       0.114000
     24 H2           1.9240    -0.0010    -0.9380 ha         1 454       0.113750
     25 H3           3.1560    -0.0010     1.1970 ha         1 454       0.123000
     26 HN4          5.1420     2.4140     3.8100 hn         1 454       0.218800
     27 HN4A         4.1080     3.5490     4.3700 hn         1 454       0.218800
     28 H5          -0.5420     0.0040     3.3330 ha         1 454       0.123000
     29 H6          -1.7750     0.0020     1.1970 ha         1 454       0.113750
     30 H9          -0.7940     2.3930     5.7170 h1         1 454       0.049200
     31 H9A         -0.9940     1.0700     6.8770 h1         1 454       0.049200
     32 H10          1.3370     1.3160     7.5850 hc         1 454       0.049200
     33 H10A         0.4680     2.8830     7.7380 hc         1 454       0.049200
     34 H11          2.7780     3.0470     6.7140 h1         1 454       0.027700
     35 H11A         1.4470     3.6650     5.6660 h1         1 454       0.027700
     36 H14          4.2650    -1.5830     3.1910 ha         1 454       0.123000
     37 H15          4.6490    -3.8920     3.9650 ha         1 454       0.113750
     38 H16          2.9690    -5.0150     5.3790 ha         1 454       0.114000
     39 H17          0.9100    -3.8240     6.0260 ha         1 454       0.113750
     40 H18          0.5260    -1.5150     5.2550 ha         1 454       0.123000
     41 H43          4.7900     2.6010     5.4420 hn         1 454       0.218800
@<TRIPOS>BOND
     1     1     3 ar  
     2     1    10 ar  
     3     1    23 1   
     4     2    12 2   
     5     2    13 1   
     6     3     5 ar  
     7     3    24 1   
     8     4    12 1   
     9     4    15 1   
    10     4    16 1   
    11     5     7 ar  
    12     5    25 1   
    13     6    11 1   
    14     6    16 2   
    15     7     9 ar  
    16     7    11 1   
    17     8    16 1   
    18     8    26 1   
    19     8    27 1   
    20     8    41 1   
    21     9    10 ar  
    22     9    28 1   
    23    10    29 1   
    24    11    12 1   
    25    11    17 1   
    26    13    14 1   
    27    13    30 1   
    28    13    31 1   
    29    14    15 1   
    30    14    32 1   
    31    14    33 1   
    32    15    34 1   
    33    15    35 1   
    34    17    18 ar  
    35    17    22 ar  
    36    18    19 ar  
    37    18    36 1   
    38    19    20 ar  
    39    19    37 1   
    40    20    21 ar  
    41    20    38 1   
    42    21    22 ar  
    43    21    39 1   
    44    22    40 1   
@<TRIPOS>SUBSTRUCTURE
     1 454         1 TEMP              0 ****  ****    0 ROOT
