@<TRIPOS>MOLECULE
molecule
   41    44     1     0     0
SMALL
bcc


@<TRIPOS>ATOM
      1 C1           0.0000     0.0000     0.0000 ca         1 454      -0.102000
      2 N1           0.2130     0.6250     5.2260 n2         1 454      -0.581900
      3 C2           1.3820     0.0000     0.0000 ca         1 454      -0.122750
      4 N2           2.2510     1.8140     5.1040 nh         1 454      -0.783600
      5 C3           2.0730     0.0000     1.1970 ca         1 454      -0.108000
      6 N3           3.4150     0.7200     3.5590 n2         1 454      -0.547900
      7 C4           1.3820     0.0020     2.3940 ca         1 454      -0.104300
      8 N4           4.4470     2.6170     4.5020 nz         1 454      -0.723600
      9 C5          -0.0000     0.0030     2.3950 ca         1 454      -0.108000
     10 C6          -0.6920     0.0010     1.1970 ca         1 454      -0.122750
     11 C7           2.1360     0.0010     3.6990 c3         1 454       0.217500
     12 C8           1.3900     0.7940     4.7410 c2         1 454       0.603200
     13 C9          -0.2930     1.5770     6.2240 c3         1 454       0.112800
     14 C10          0.8600     2.1350     7.0600 c3         1 454      -0.121400
     15 C11          1.8940     2.7980     6.1380 c3         1 454       0.213800
     16 C12          3.4050     1.7280     4.3790 c2         1 454       0.609100
     17 C13          2.3700    -1.4110     4.1730 ca         1 454      -0.104300
     18 C14          3.5270    -2.0760     3.8130 ca         1 454      -0.108000
     19 C15          3.7420    -3.3710     4.2470 ca         1 454      -0.122750
     20 C16          2.8010    -4.0000     5.0410 ca         1 454      -0.102000
     21 C17          1.6460    -3.3330     5.4010 ca         1 454      -0.122750
     22 C18          1.4320    -2.0370     4.9720 ca         1 454      -0.108000
     23 H1          -0.5410    -0.0010    -0.9380 ha         1 454       0.145000
     24 H2           1.9240    -0.0010    -0.9380 ha         1 454       0.144250
     25 H3           3.1560    -0.0010     1.1970 ha         1 454       0.147750
     26 HN4          5.1420     2.4140     3.8100 hn         1 454       0.476800
     27 HN4A         4.1080     3.5490     4.3700 hn         1 454       0.476800
     28 H5          -0.5420     0.0040     3.3330 ha         1 454       0.147750
     29 H6          -1.7750     0.0020     1.1970 ha         1 454       0.144250
     30 H9          -0.7940     2.3930     5.7170 h1         1 454       0.087200
     31 H9A         -0.9940     1.0700     6.8770 h1         1 454       0.087200
     32 H10          1.3370     1.3160     7.5850 hc         1 454       0.080700
     33 H10A         0.4680     2.8830     7.7380 hc         1 454       0.080700
     34 H11          2.7780     3.0470     6.7140 h1         1 454       0.055700
     35 H11A         1.4470     3.6650     5.6660 h1         1 454       0.055700
     36 H14          4.2650    -1.5830     3.1910 ha         1 454       0.147750
     37 H15          4.6490    -3.8920     3.9650 ha         1 454       0.144250
     38 H16          2.9690    -5.0150     5.3790 ha         1 454       0.145000
     39 H17          0.9100    -3.8240     6.0260 ha         1 454       0.144250
     40 H18          0.5260    -1.5150     5.2550 ha         1 454       0.147750
     41 H43          4.7900     2.6010     5.4420 hn         1 454       0.476800
@<TRIPOS>BOND
     1     1     3 ar  
     2     1    10 ar  
     3     2    12 2   
     4     2    13 1   
     5     3     5 ar  
     6     4    12 1   
     7     4    15 1   
     8     4    16 1   
     9     5     7 ar  
    10     6    11 1   
    11     6    16 2   
    12     7     9 ar  
    13     7    11 1   
    14     8    16 1   
    15     9    10 ar  
    16    11    12 1   
    17    11    17 1   
    18    13    14 1   
    19    14    15 1   
    20    17    18 ar  
    21    17    22 ar  
    22    18    19 ar  
    23    19    20 ar  
    24    20    21 ar  
    25    21    22 ar  
    26     1    23 1   
    27     3    24 1   
    28     5    25 1   
    29     8    26 1   
    30     8    27 1   
    31     9    28 1   
    32    10    29 1   
    33    13    30 1   
    34    13    31 1   
    35    14    32 1   
    36    14    33 1   
    37    15    34 1   
    38    15    35 1   
    39    18    36 1   
    40    19    37 1   
    41    20    38 1   
    42    21    39 1   
    43    22    40 1   
    44    41     8 1   
@<TRIPOS>SUBSTRUCTURE
     1 454         1 TEMP              0 ****  ****    0 ROOT
