@<TRIPOS>MOLECULE
molecule
   58    61     1     0     0
SMALL
bcc


@<TRIPOS>ATOM
      1 S1           0.0000     0.0000     0.0000 s6         1 455       1.370800
      2 C2           3.7370     0.0000     1.5340 c3         1 455      -0.138700
      3 C3           3.9720     0.0000     0.0000 c3         1 455      -0.132700
      4 N4           1.6080    -0.1240     0.3750 n3         1 455      -0.811500
      5 C5           4.5280     1.1010     2.1940 c          1 455       0.672100
      6 N6           7.7150     5.0440     6.0230 n          1 455      -0.241200
      7 C7           5.1680    -0.8400    -0.3640 c          1 455       0.665100
      8 C8           2.6620    -0.6460    -0.5140 c3         1 455       0.217800
      9 C9           2.2220     0.2690     1.6520 c3         1 455       0.223800
     10 C10          8.7440     4.6340     6.7890 c          1 455       0.684700
     11 C11          6.8960     4.0960     5.3970 ca         1 455       0.046600
     12 N12          4.4610     1.2700     3.5300 ns         1 455      -0.456100
     13 C13          5.7320     3.6650     6.0200 ca         1 455      -0.127000
     14 N14          5.5360    -0.9670    -1.6540 ns         1 455      -0.460100
     15 C15          5.2790     2.2190     4.1570 ca         1 455       0.013600
     16 C16          4.9250     2.7290     5.4020 ca         1 455       0.101900
     17 O17         -0.5330     1.0090     0.8460 o          1 455      -0.519300
     18 O18         -0.0770     0.0530    -1.4180 o          1 455      -0.519300
     19 C19          7.4590     6.3680     5.8550 cc         1 455       0.001600
     20 O20          5.2240     1.8340     1.5240 o          1 455      -0.571100
     21 O21          5.8000    -1.4050     0.5050 o          1 455      -0.574100
     22 C22          9.5700     5.5780     7.4210 cc         1 455      -0.253200
     23 O23          8.9580     3.4410     6.9350 o          1 455      -0.640500
     24 C24          7.2470     3.5900     4.1520 ca         1 455      -0.097000
     25 C25          6.4400     2.6550     3.5340 ca         1 455      -0.112000
     26 C26          8.2330     7.3030     6.4540 cd         1 455      -0.232000
     27 C27          9.3180     6.9080     7.2500 cd         1 455      -0.046000
     28 C28          6.5820    -1.8290    -2.0030 ca         1 455       0.030600
     29 N29         -0.7200    -1.4210     0.4540 nz         1 455      -0.819500
     30 F30          3.7910     2.3090     6.0060 f          1 455      -0.144900
     31 C31          8.6480    -3.5360    -2.6920 ca         1 455       0.023400
     32 Cl           9.9450    -4.6070    -3.1250 cl         1 455      -0.087400
     33 C33          6.5280    -2.5420    -3.1930 ca         1 455      -0.132000
     34 C34          7.6760    -1.9710    -1.1610 ca         1 455      -0.132000
     35 C35          8.7070    -2.8240    -1.5080 ca         1 455      -0.101500
     36 C36          7.5600    -3.3930    -3.5350 ca         1 455      -0.101500
     37 H291        -0.5820    -1.5660     1.4350 hn         1 455       0.493133
     38 H292        -1.7000    -1.3760     0.2580 hn         1 455       0.493133
     39 H2           3.9860    -0.9660     1.9570 hc         1 455       0.113700
     40 H3           4.0730     1.0120    -0.3730 hc         1 455       0.123700
     41 H91C         2.0500     1.3230     1.8340 h1         1 455       0.068200
     42 H92C         1.8060    -0.3230     2.4580 h1         1 455       0.068200
     43 H81C         2.7190    -1.7250    -0.4360 h1         1 455       0.070700
     44 H82C         2.4720    -0.3450    -1.5380 h1         1 455       0.070700
     45 H12          3.8550     0.6920     4.0780 hn         1 455       0.330500
     46 H19          6.6240     6.6790     5.2380 h4         1 455       0.157000
     47 H14          4.9930    -0.5270    -2.3710 hn         1 455       0.324500
     48 H22         10.4010     5.2540     8.0350 ha         1 455       0.171000
     49 H13          5.4570     4.0620     6.9890 ha         1 455       0.166000
     50 H24          8.1530     3.9300     3.6650 ha         1 455       0.160000
     51 H25          6.7140     2.2600     2.5630 ha         1 455       0.187000
     52 H26          8.0210     8.3560     6.3110 ha         1 455       0.153000
     53 H27          9.9430     7.6500     7.7310 ha         1 455       0.144000
     54 H33          5.6760    -2.4310    -3.8540 ha         1 455       0.151000
     55 H34          7.7230    -1.4130    -0.2340 ha         1 455       0.151000
     56 H35          9.5610    -2.9350    -0.8510 ha         1 455       0.155500
     57 H36          7.5180    -3.9500    -4.4640 ha         1 455       0.155500
     58 H293        -0.3190    -2.1780    -0.0640 hn         1 455       0.493133
@<TRIPOS>BOND
     1     1     4 1
     2     1    17 2
     3     1    18 2
     4     1    29 1
     5     2     3 1
     6     2     5 1
     7     2     9 1
     8     3     7 1
     9     3     8 1
    10     4     8 1
    11     4     9 1
    12     5    12 1
    13     5    20 2
    14     6    10 1
    15     6    11 1
    16     6    19 1
    17     7    14 1
    18     7    21 2
    19    10    22 1
    20    10    23 2
    21    11    13 ar
    22    11    24 ar
    23    12    15 1
    24    13    16 ar
    25    14    28 1
    26    15    16 ar
    27    15    25 ar
    28    16    30 1
    29    19    26 2
    30    22    27 2
    31    24    25 ar
    32    26    27 1
    33    28    33 ar
    34    28    34 ar
    35    31    32 1
    36    31    35 ar
    37    31    36 ar
    38    33    36 ar
    39    34    35 ar
    40    29    37 1
    41    29    38 1
    42     2    39 1
    43     3    40 1
    44     9    41 1
    45     9    42 1
    46     8    43 1
    47     8    44 1
    48    12    45 1
    49    19    46 1
    50    14    47 1
    51    22    48 1
    52    13    49 1
    53    24    50 1
    54    25    51 1
    55    26    52 1
    56    27    53 1
    57    33    54 1
    58    34    55 1
    59    35    56 1
    60    36    57 1
    61    58    29 1
@<TRIPOS>SUBSTRUCTURE
     1 455         1 TEMP              0 ****  ****    0 ROOT
