@<TRIPOS>MOLECULE
molecule
   36    38     1     0     0
SMALL
bcc


@<TRIPOS>ATOM
      1 C1           0.0000     0.0000     0.0000 c3         1 456      -0.164100
      2 C2           1.5070     0.0000     0.0000 c          1 456       0.655100
      3 C7           5.6250     0.0010    -2.0590 cc         1 456       0.404600
      4 C8           5.9960     0.0060    -0.7660 cd         1 456      -0.224700
      5 C10          7.4260     0.0060    -0.2840 c3         1 456       0.210100
      6 C12          8.0010     0.4260    -2.5990 c3         1 456       0.093800
      7 C13          6.6490     0.0040    -3.1860 c3         1 456      -0.098700
      8 C17         12.0310    -0.6980    -2.0030 ca         1 456       0.255900
      9 C18         11.7600     0.4380    -1.2510 ca         1 456       0.556300
     10 O3           2.1130     0.0000     1.0500 o          1 456      -0.584100
     11 N4           2.1800     0.0010    -1.1680 ns         1 456      -0.520400
     12 C5           3.5700    -0.0000    -1.1680 cd         1 456       0.543300
     13 N6           4.3110     0.0000    -2.2290 nc         1 456      -0.741000
     14 S9           4.5490     0.0090     0.2330 ss         1 456      -0.056300
     15 N11          8.2960    -0.3810    -1.4070 nh         1 456      -0.607300
     16 C14          9.5090     0.0810    -1.5340 ca         1 456       0.496900
     17 C15          9.7870    -1.0590    -2.2820 ca         1 456       0.242900
     18 N16         11.0390    -1.4160    -2.5010 nb         1 456      -0.635000
     19 N19         10.5040     0.8030    -1.0330 nb         1 456      -0.761000
     20 C21         12.4270     2.3290     0.0230 c3         1 456       0.134700
     21 H1          -0.3610     0.8810    -0.5160 hc         1 456       0.069700
     22 H2          -0.3610     0.0060     1.0210 hc         1 456       0.069700
     23 H3          -0.3610    -0.8880    -0.5050 hc         1 456       0.069700
     24 H4           7.6950     0.9980     0.0580 h1         1 456       0.068200
     25 H5           7.5370    -0.7070     0.5240 h1         1 456       0.068200
     26 H6           7.9260     1.4630    -2.2940 h1         1 456       0.076200
     27 H7           8.7660     0.2260    -3.3390 h1         1 456       0.076200
     28 H8           6.3470     0.7100    -3.9510 hc         1 456       0.069200
     29 H9           6.7290    -0.9900    -3.6080 hc         1 456       0.069200
     30 H10         13.0570    -0.9950    -2.1840 h4         1 456       0.040100
     31 H11          1.6800    -0.0130    -2.0340 hn         1 456       0.344500
     32 H12          9.0100    -1.7920    -2.4630 h4         1 456       0.067100
     33 H13         11.8750     3.0200    -0.6020 h1         1 456       0.047033
     34 H14         13.3410     2.8010     0.3630 h1         1 456       0.047033
     35 H15         11.8230     2.0540     0.8780 h1         1 456       0.047033
     36 O20         12.7790     1.1730    -0.7400 os         1 456      -0.432100
@<TRIPOS>BOND
     1    20    36 1
     2    36     9 1
     3     9     8 ar
     4     9    19 ar
     5     8    18 ar
     6    19    16 ar
     7    18    17 ar
     8     5     4 1
     9     5    15 1
    10    16    17 ar
    11    16    15 1
    12    14     4 1
    13    14    12 1
    14    10     2 2
    15     4     3 2
    16    15     6 1
    17     2     1 1
    18     2    11 1
    19     6     7 1
    20    12    11 1
    21    12    13 2
    22     3    13 1
    23     3     7 1
    24     1    21 1
    25     1    22 1
    26     1    23 1
    27     5    24 1
    28     5    25 1
    29     6    26 1
    30     6    27 1
    31     7    28 1
    32     7    29 1
    33     8    30 1
    34    11    31 1
    35    17    32 1
    36    20    33 1
    37    20    34 1
    38    20    35 1
@<TRIPOS>SUBSTRUCTURE
     1 456         1 TEMP              0 ****  ****    0 ROOT
