@<TRIPOS>MOLECULE
456
   36    39     1     0     0
SMALL
bcc


@<TRIPOS>ATOM
      1 C1           0.0000     0.0000     0.0000 c3         1 456      -0.129000
      2 C2           1.5070     0.0000     0.0000 c2         1 456       0.186000
      3 C7           5.6250     0.0010    -2.0590 c2         1 456      -0.069000
      4 C8           5.9960     0.0060    -0.7660 c2         1 456      -0.367000
      5 C10          7.4260     0.0060    -0.2840 c3         1 456       0.008000
      6 C12          8.0010     0.4260    -2.5990 DU         1 456      -0.139000
      7 C13          6.6490     0.0040    -3.1860 c3         1 456      -0.026000
      8 C17         12.0310    -0.6980    -2.0030 c2         1 456      -0.171000
      9 C18         11.7600     0.4380    -1.2510 c2         1 456       0.092000
     10 O3           2.1130     0.0000     1.0500 o          1 456      -0.362000
     11 N4           2.1800     0.0010    -1.1680 ns         1 456       0.172000
     12 C5           3.5700    -0.0000    -1.1680 c2         1 456      -0.251000
     13 N6           4.3110     0.0000    -2.2290 n2         1 456      -0.087000
     14 S9           4.5490     0.0090     0.2330 ss         1 456       0.387000
     15 N11          8.2960    -0.3810    -1.4070 np         1 456       0.027000
     16 C14          9.5090     0.0810    -1.5340 cx         1 456      -0.030000
     17 C15          9.7870    -1.0590    -2.2820 c2         1 456      -0.225000
     18 N16         11.0390    -1.4160    -2.5010 n2         1 456       0.005000
     19 N19         10.5040     0.8030    -1.0330 n2         1 456      -0.110000
     20 C21         12.4270     2.3290     0.0230 c3         1 456       0.065000
     21 H1          -0.3610     0.8810    -0.5160 hc         1 456       0.067333
     22 H2          -0.3610     0.0060     1.0210 hc         1 456       0.067333
     23 H3          -0.3610    -0.8880    -0.5050 hc         1 456       0.067333
     24 H4           7.6950     0.9980     0.0580 h1         1 456       0.072500
     25 H5           7.5370    -0.7070     0.5240 h1         1 456       0.072500
     26 H6           7.9260     1.4630    -2.2940 ha         1 456       0.090500
     27 H7           8.7660     0.2260    -3.3390 ha         1 456       0.090500
     28 H8           6.3470     0.7100    -3.9510 hc         1 456       0.073000
     29 H9           6.7290    -0.9900    -3.6080 hc         1 456       0.073000
     30 H10         13.0570    -0.9950    -2.1840 h4         1 456       0.137000
     31 H11          1.6800    -0.0130    -2.0340 hn         1 456       0.092000
     32 H12          9.0100    -1.7920    -2.4630 h4         1 456       0.178000
     33 H13         11.8750     3.0200    -0.6020 h1         1 456       0.040333
     34 H14         13.3410     2.8010     0.3630 h1         1 456       0.040333
     35 H15         11.8230     2.0540     0.8780 h1         1 456       0.040333
     36 O20         12.7790     1.1730    -0.7400 os         1 456      -0.177000
@<TRIPOS>BOND
     1     1     2 1   
     2     1    21 1   
     3     1    22 1   
     4     1    23 1   
     5     2    10 1   
     6     2    11 1   
     7     3     4 1   
     8     3     7 1   
     9     3    13 1   
    10     4     5 1   
    11     4    14 1   
    12     5    15 1   
    13     5    24 1   
    14     5    25 1   
    15     6     7 1   
    16     6    15 1   
    17     6    16 1   
    18     6    26 1   
    19     6    27 1   
    20     7    28 1   
    21     7    29 1   
    22     8     9 1   
    23     8    18 1   
    24     8    30 1   
    25     9    19 1   
    26     9    36 1   
    27    11    12 1   
    28    11    31 1   
    29    12    13 1   
    30    12    14 1   
    31    15    16 1   
    32    16    17 1   
    33    16    19 1   
    34    17    18 1   
    35    17    32 1   
    36    20    33 1   
    37    20    34 1   
    38    20    35 1   
    39    20    36 1   
@<TRIPOS>SUBSTRUCTURE
     1 456         1 TEMP              0 ****  ****    0 ROOT
