@<TRIPOS>MOLECULE
molecule
   39    41     1     0     0
SMALL
bcc


@<TRIPOS>ATOM
      1 CAK          0.0000     0.0000     0.0000 c3         1 458      -0.071400
      2 CAJ          1.5360     0.0000     0.0000 c3         1 458      -0.048500
      3 CAO          2.0130     0.0000     1.4310 c2         1 458      -0.114400
      4 CAR          3.3810     0.5570     1.7350 c3         1 458      -0.052900
      5 CAQ          1.2980    -0.4550     2.4100 c2         1 458      -0.163200
      6 CAP         -0.0840    -1.0160     2.2710 c3         1 458      -0.019200
      7 CAL         -0.4520    -1.2240     0.8060 c3         1 458      -0.092000
      8 CAT         -1.9710    -1.3630     0.6890 c3         1 458       0.147400
      9 OAU         -2.4080    -2.4850     1.4610 oh         1 458      -0.612800
     10 CAM          0.2050    -2.4780     0.2450 c3         1 458       0.141400
     11 OAH          1.6250    -2.3710     0.2510 os         1 458      -0.391600
     12 CAI          1.9880    -1.3090    -0.6320 c3         1 458       0.187400
     13 CAD          3.4830    -1.2900    -0.8170 ca         1 458      -0.089300
     14 CAC          4.0350    -0.6520    -1.9130 ca         1 458      -0.100500
     15 CAB          5.4060    -0.6280    -2.0810 ca         1 458      -0.157500
     16 CAA          6.2290    -1.2550    -1.1570 ca         1 458       0.103100
     17 OAG          7.5780    -1.2380    -1.3240 oh         1 458      -0.524100
     18 CAF          5.6720    -1.9000    -0.0610 ca         1 458      -0.157500
     19 CAE          4.3010    -1.9160     0.1060 ca         1 458      -0.100500
     20 HAK1        -0.3690    -0.0700    -1.0160 hc         1 458       0.047700
     21 HAK2        -0.3690     0.9060     0.4660 hc         1 458       0.047700
     22 HAJ          1.9270     0.8520    -0.5430 hc         1 458       0.069700
     23 HAR1         3.2880     1.3870     2.4250 hc         1 458       0.042033
     24 HAR2         3.9950    -0.2160     2.1810 hc         1 458       0.042033
     25 HAR3         3.8430     0.9000     0.8170 hc         1 458       0.042033
     26 HAQ          1.7320    -0.4280     3.4030 ha         1 458       0.121000
     27 HAP1        -0.1330    -1.9670     2.7870 hc         1 458       0.057200
     28 HAP2        -0.7910    -0.3280     2.7190 hc         1 458       0.057200
     29 HAT1        -2.4460    -0.4630     1.0600 h1         1 458       0.023200
     30 HAT2        -2.2410    -1.5130    -0.3490 h1         1 458       0.023200
     31 HAU         -3.3440    -2.5710     1.3880 ho         1 458       0.403000
     32 HAM1        -0.1320    -2.6270    -0.7740 h1         1 458       0.054700
     33 HAM2        -0.0880    -3.3290     0.8480 h1         1 458       0.054700
     34 HAI          1.4960    -1.4430    -1.5870 h1         1 458       0.046700
     35 HAC          3.3930    -0.1620    -2.6340 ha         1 458       0.143000
     36 HAB          5.8380    -0.1280    -2.9400 ha         1 458       0.139500
     37 HAG          7.8420    -1.9880    -1.8300 ho         1 458       0.418000
     38 HAF          6.3120    -2.3900     0.6620 ha         1 458       0.139500
     39 HAE          3.8670    -2.4190     0.9610 ha         1 458       0.143000
@<TRIPOS>BOND
     1     1     2 1   
     2     1     7 1   
     3     1    20 1   
     4     1    21 1   
     5     2     3 1   
     6     2    12 1   
     7     2    22 1   
     8     3     4 1   
     9     3     5 2   
    10     4    23 1   
    11     4    24 1   
    12     4    25 1   
    13     5     6 1   
    14     5    26 1   
    15     6     7 1   
    16     6    27 1   
    17     6    28 1   
    18     7     8 1   
    19     7    10 1   
    20     8     9 1   
    21     8    29 1   
    22     8    30 1   
    23     9    31 1   
    24    10    11 1   
    25    10    32 1   
    26    10    33 1   
    27    11    12 1   
    28    12    13 1   
    29    12    34 1   
    30    13    14 ar  
    31    13    19 ar  
    32    14    15 ar  
    33    14    35 1   
    34    15    16 ar  
    35    15    36 1   
    36    16    17 1   
    37    16    18 ar  
    38    17    37 1   
    39    18    19 ar  
    40    18    38 1   
    41    19    39 1   
@<TRIPOS>SUBSTRUCTURE
     1 458         1 TEMP              0 ****  ****    0 ROOT
