@<TRIPOS>MOLECULE
458
   39    41     1     0     0
SMALL
bcc


@<TRIPOS>ATOM
      1 CAK        -0.0210   -0.0520   -0.0200 c3        1 458     -0.074400
      2 CAJ         1.5050    0.0010   -0.0290 c3        1 458     -0.045500
      3 CAO         1.9920    0.1770    1.3750 c2        1 458     -0.110400
      4 CAR         3.2500    0.9380    1.5500 c3        1 458     -0.057900
      5 CAQ         1.2960   -0.3210    2.4090 c2        1 458     -0.161200
      6 CAP         0.0130   -1.0520    2.2740 c3        1 458     -0.026200
      7 CAL        -0.4450   -1.2510    0.8280 c3        1 458     -0.080000
      8 CAT        -1.9720   -1.3800    0.7820 c3        1 458      0.137400
      9 OAU        -2.3440   -2.4940    1.5770 oh        1 458     -0.600800
     10 CAM         0.1700   -2.5180    0.2190 c3        1 458      0.142400
     11 OAH         1.5810   -2.4480    0.0650 os        1 458     -0.407600
     12 CAI         2.0090   -1.3030   -0.6820 c3        1 458      0.198400
     13 CAD         3.4990   -1.3610   -0.8220 ca        1 458     -0.113300
     14 CAC         4.1160   -0.5400   -1.7770 ca        1 458     -0.079000
     15 CAB         5.4930   -0.5740   -1.9600 ca        1 458     -0.189000
     16 CAA         6.2640   -1.4500   -1.1770 ca        1 458      0.123100
     17 OAG         7.6220   -1.4410   -1.4020 oh        1 458     -0.499100
     18 CAF         5.6600   -2.2790   -0.2230 ca        1 458     -0.189000
     19 CAE         4.2780   -2.2290   -0.0510 ca        1 458     -0.079000
     20 HAK1       -0.4120   -0.1590   -1.0640 hc        1 458      0.046700
     21 HAK2       -0.4370    0.8930    0.4130 hc        1 458      0.046700
     22 HAJ         1.8540    0.8610   -0.6620 hc        1 458      0.062700
     23 HAR1        3.5840    0.9390    2.6160 hc        1 458      0.043033
     24 HAR2        4.0600    0.4860    0.9220 hc        1 458      0.043033
     25 HAR3        3.1050    1.9990    1.2250 hc        1 458      0.043033
     26 HAQ         1.6510   -0.1980    3.4440 ha        1 458      0.123000
     27 HAP1        0.0980   -2.0570    2.7690 hc        1 458      0.057200
     28 HAP2       -0.7790   -0.4800    2.8330 hc        1 458      0.057200
     29 HAT1       -2.4470   -0.4440    1.1820 h1        1 458      0.024700
     30 HAT2       -2.3130   -1.5380   -0.2770 h1        1 458      0.024700
     31 HAU        -3.3070   -2.5350    1.5550 ho        1 458      0.401000
     32 HAM1        0.0120   -3.3990    0.8960 h1        1 458      0.054200
     33 HAM2       -0.3000   -2.7160   -0.7830 h1        1 458      0.054200
     34 HAI         1.5490   -1.3690   -1.7140 h1        1 458      0.039700
     35 HAC         3.5040    0.1390   -2.3900 ha        1 458      0.144000
     36 HAB         5.9860    0.0660   -2.7050 ha        1 458      0.141500
     37 HAG         8.0250   -2.0910   -0.8100 ho        1 458      0.419000
     38 HAF         6.2690   -2.9630    0.3840 ha        1 458      0.141500
     39 HAE         3.7910   -2.8790    0.6940 ha        1 458      0.144000
@<TRIPOS>BOND
     1    1    2 1   
     2    1    7 1   
     3    1   20 1   
     4    1   21 1   
     5    2    3 1   
     6    2   12 1   
     7    2   22 1   
     8    3    4 1   
     9    3    5 2   
    10    4   23 1   
    11    4   24 1   
    12    4   25 1   
    13    5    6 1   
    14    5   26 1   
    15    6    7 1   
    16    6   27 1   
    17    6   28 1   
    18    7    8 1   
    19    7   10 1   
    20    8    9 1   
    21    8   29 1   
    22    8   30 1   
    23    9   31 1   
    24   10   11 1   
    25   10   32 1   
    26   10   33 1   
    27   11   12 1   
    28   12   13 1   
    29   12   34 1   
    30   13   14 ar  
    31   13   19 ar  
    32   14   15 ar  
    33   14   35 1   
    34   15   16 ar  
    35   15   36 1   
    36   16   17 1   
    37   16   18 ar  
    38   17   37 1   
    39   18   19 ar  
    40   18   38 1   
    41   19   39 1   
@<TRIPOS>SUBSTRUCTURE
     1 458         1 TEMP              0 ****  ****    0 ROOT
