@<TRIPOS>MOLECULE
459
   44    46     1     0     0
SMALL
bcc


@<TRIPOS>ATOM
      1 CAT        -0.0320    0.0050   -0.0700 c3        1 459     -0.095100
      2 CAK         1.4770    0.0970   -0.0300 c3        1 459     -0.061700
      3 CAJ         2.0220    0.0730    1.4000 c3        1 459     -0.073700
      4 CAN         3.5430   -0.0940    1.3900 c3        1 459     -0.057700
      5 CAQ         3.9420   -1.5000    0.9910 c3        1 459     -0.089100
      6 CAP         4.2310    0.9440    0.5150 c3        1 459     -0.074400
      7 CAO         3.5620    1.1700   -0.8240 c3        1 459     -0.060400
      8 CAL         2.0470    1.3500   -0.7110 c3        1 459     -0.073000
      9 CAR         1.4570    1.4990   -2.1180 c3        1 459      0.136400
     10 OAS         2.0700    2.6200   -2.7370 oh        1 459     -0.601800
     11 CAM         1.6960    2.6020    0.1000 c3        1 459      0.144400
     12 OAH         2.0570    2.5310    1.4730 os        1 459     -0.413600
     13 CAI         1.5760    1.3520    2.1300 c3        1 459      0.193400
     14 CAD         2.0380    1.3920    3.5560 ca        1 459     -0.114300
     15 CAC         3.1000    2.2040    3.9630 ca        1 459     -0.080000
     16 CAB         3.5000    2.2300    5.2970 ca        1 459     -0.188000
     17 CAA         2.8270    1.4300    6.2300 ca        1 459      0.123100
     18 OAG         3.1650    1.3990    7.5640 oh        1 459     -0.499100
     19 CAF         1.7570    0.6090    5.8360 ca        1 459     -0.188000
     20 CAE         1.3710    0.6000    4.5010 ca        1 459     -0.080000
     21 HAT1       -0.5140    0.9670    0.2270 hc        1 459      0.036033
     22 HAT2       -0.3750   -0.2530   -1.1020 hc        1 459      0.036033
     23 HAT3       -0.3860   -0.7950    0.6250 hc        1 459      0.036033
     24 HAK         1.8800   -0.8060   -0.5720 hc        1 459      0.055700
     25 HAJ         1.5730   -0.7990    1.9510 hc        1 459      0.055700
     26 HAN         3.8980    0.0720    2.4500 hc        1 459      0.056700
     27 HAQ1        5.0310   -1.6540    1.1840 hc        1 459      0.032700
     28 HAQ2        3.3680   -2.2550    1.5800 hc        1 459      0.032700
     29 HAQ3        3.7540   -1.6790   -0.0960 hc        1 459      0.032700
     30 HAP1        5.2950    0.6310    0.3420 hc        1 459      0.048200
     31 HAP2        4.2520    1.9190    1.0760 hc        1 459      0.048200
     32 HAO1        3.9980    2.0820   -1.3110 hc        1 459      0.047700
     33 HAO2        3.7670    0.2970   -1.4990 hc        1 459      0.047700
     34 HAR1        0.3470    1.6650   -2.0590 h1        1 459      0.025200
     35 HAR2        1.6590    0.5700   -2.7150 h1        1 459      0.025200
     36 HAS         1.7080    2.6700   -3.6290 ho        1 459      0.400000
     37 HAM1        0.5940    2.8080    0.0230 h1        1 459      0.054200
     38 HAM2        2.2740    3.4850   -0.2850 h1        1 459      0.054200
     39 HAI         0.4450    1.3860    2.1180 h1        1 459      0.041700
     40 HAC         3.6180    2.8310    3.2190 ha        1 459      0.142500
     41 HAB         4.3330    2.8720    5.6140 ha        1 459      0.141500
     42 HAG         3.9010    2.0130    7.6980 ho        1 459      0.419000
     43 HAF         1.2430   -0.0090    6.5840 ha        1 459      0.141500
     44 HAE         0.5300   -0.0370    4.1840 ha        1 459      0.142500
@<TRIPOS>BOND
     1    1    2 1   
     2    1   21 1   
     3    1   22 1   
     4    1   23 1   
     5    2    3 1   
     6    2    8 1   
     7    2   24 1   
     8    3    4 1   
     9    3   13 1   
    10    3   25 1   
    11    4    5 1   
    12    4    6 1   
    13    4   26 1   
    14    5   27 1   
    15    5   28 1   
    16    5   29 1   
    17    6    7 1   
    18    6   30 1   
    19    6   31 1   
    20    7    8 1   
    21    7   32 1   
    22    7   33 1   
    23    8    9 1   
    24    8   11 1   
    25    9   10 1   
    26    9   34 1   
    27    9   35 1   
    28   10   36 1   
    29   11   12 1   
    30   11   37 1   
    31   11   38 1   
    32   12   13 1   
    33   13   14 1   
    34   13   39 1   
    35   14   15 ar  
    36   14   20 ar  
    37   15   16 ar  
    38   15   40 1   
    39   16   17 ar  
    40   16   41 1   
    41   17   18 1   
    42   17   19 ar  
    43   18   42 1   
    44   19   20 ar  
    45   19   43 1   
    46   20   44 1   
@<TRIPOS>SUBSTRUCTURE
     1 459         1 TEMP              0 ****  ****    0 ROOT
