@<TRIPOS>MOLECULE
molecule
   44    46     1     0     0
SMALL
bcc


@<TRIPOS>ATOM
      1 CAT          0.0000     0.0000     0.0000 c3         1 459      -0.101100
      2 CAK          1.5300     0.0000     0.0000 c3         1 459      -0.063700
      3 CAJ          2.0480     0.0000     1.4440 c3         1 459      -0.078700
      4 CAN          3.5800    -0.0540     1.4140 c3         1 459      -0.066700
      5 CAQ          4.0310    -1.3140     0.6720 c3         1 459      -0.094100
      6 CAP          4.1180     1.1830     0.6940 c3         1 459      -0.110400
      7 CAO          3.5680     1.2310    -0.7330 c3         1 459      -0.059400
      8 CAL          2.0380     1.2750    -0.6860 c3         1 459      -0.087000
      9 CAR          1.4730     1.3660    -2.1060 c3         1 459       0.149400
     10 OAS          1.9600     2.5530    -2.7360 oh         1 459      -0.612800
     11 CAM          1.5990     2.4950     0.1310 c3         1 459       0.136400
     12 OAH          2.1850     2.4400     1.4300 os         1 459      -0.392600
     13 CAI          1.6110     1.3340     2.1210 c3         1 459       0.180400
     14 CAD          2.0700     1.3460     3.5560 ca         1 459      -0.090300
     15 CAC          3.3500     1.7690     3.8680 ca         1 459      -0.102000
     16 CAB          3.7710     1.7870     5.1840 ca         1 459      -0.155500
     17 CAA          2.9140     1.3690     6.1910 ca         1 459       0.105100
     18 OAG          3.3280     1.3800     7.4860 oh         1 459      -0.524100
     19 CAF          1.6340     0.9390     5.8760 ca         1 459      -0.155500
     20 CAE          1.2150     0.9280     4.5590 ca         1 459      -0.102000
     21 HAT1        -0.3610    -0.4140    -0.9340 hc         1 459       0.036700
     22 HAT2        -0.3610     1.0160     0.1080 hc         1 459       0.036700
     23 HAT3        -0.3610    -0.6010     0.8250 hc         1 459       0.036700
     24 HAK          1.8990    -0.8730    -0.5240 hc         1 459       0.062700
     25 HAJ          1.6510    -0.8480     1.9890 hc         1 459       0.063700
     26 HAN          3.9590    -0.0720     2.4290 hc         1 459       0.058700
     27 HAQ1         3.1800    -1.9660     0.5160 hc         1 459       0.034700
     28 HAQ2         4.4550    -1.0370    -0.2860 hc         1 459       0.034700
     29 HAQ3         4.7790    -1.8320     1.2610 hc         1 459       0.034700
     30 HAP1         5.2000     1.1360     0.6600 hc         1 459       0.067700
     31 HAP2         3.8070     2.0730     1.2290 hc         1 459       0.067700
     32 HAO1         3.9390     2.1180    -1.2320 hc         1 459       0.048700
     33 HAO2         3.8870     0.3470    -1.2710 hc         1 459       0.048700
     34 HAR1         1.7870     0.5000    -2.6750 h1         1 459       0.024200
     35 HAR2         0.3910     1.3970    -2.0630 h1         1 459       0.024200
     36 HAS          1.6470     2.5880    -3.6250 ho         1 459       0.402000
     37 HAM1         0.5190     2.4950     0.2240 h1         1 459       0.058200
     38 HAM2         1.9220     3.3990    -0.3710 h1         1 459       0.058200
     39 HAI          0.5310     1.4140     2.0860 h1         1 459       0.045700
     40 HAC          4.0190     2.0960     3.0810 ha         1 459       0.141500
     41 HAB          4.7730     2.1190     5.4270 ha         1 459       0.140500
     42 HAG          3.1200     2.2130     7.8750 ho         1 459       0.419000
     43 HAF          0.9630     0.6120     6.6610 ha         1 459       0.140500
     44 HAE          0.2150     0.5930     4.3120 ha         1 459       0.141500
@<TRIPOS>BOND
     1     1     2 1
     2     1    21 1
     3     1    22 1
     4     1    23 1
     5     2     3 1
     6     2     8 1
     7     2    24 1
     8     3     4 1
     9     3    13 1
    10     3    25 1
    11     4     5 1
    12     4     6 1
    13     4    26 1
    14     5    27 1
    15     5    28 1
    16     5    29 1
    17     6     7 1
    18     6    30 1
    19     6    31 1
    20     7     8 1
    21     7    32 1
    22     7    33 1
    23     8     9 1
    24     8    11 1
    25     9    10 1
    26     9    34 1
    27     9    35 1
    28    10    36 1
    29    11    12 1
    30    11    37 1
    31    11    38 1
    32    12    13 1
    33    13    14 1
    34    13    39 1
    35    14    15 ar
    36    14    20 ar
    37    15    16 ar
    38    15    40 1
    39    16    17 ar
    40    16    41 1
    41    17    18 1
    42    17    19 ar
    43    18    42 1
    44    19    20 ar
    45    19    43 1
    46    20    44 1
@<TRIPOS>SUBSTRUCTURE
     1 459         1 TEMP              0 ****  ****    0 ROOT
