@<TRIPOS>MOLECULE
molecule
   38    40     1     0     0
SMALL
bcc


@<TRIPOS>ATOM
      1 P            0.0000     0.0000     0.0000 p5         1 45A       1.166600
      2 O4'         -1.7000     2.7510    -2.9940 os         1 45A      -0.389600
      3 C4'         -2.0830     2.9580    -1.6240 c3         1 45A       0.116100
      4 C3'         -3.5600     3.3980    -1.6220 c3         1 45A       0.086100
      5 C2'         -3.9380     3.4630    -3.1220 c3         1 45A       0.088100
      6 O3'         -3.6980     4.6840    -1.0150 oh         1 45A      -0.579800
      7 C6          -3.1080     3.4530    -8.6660 ca         1 45A       0.779200
      8 C1'         -2.5510     3.5930    -3.8010 c3         1 45A       0.253800
      9 C4          -2.9110     3.8410    -6.2950 ca         1 45A       0.473800
     10 N3          -3.2320     5.1110    -6.5180 nb         1 45A      -0.776000
     11 C2          -3.4730     5.5370    -7.7410 ca         1 45A       0.723900
     12 N1          -3.4210     4.7390    -8.7920 nb         1 45A      -0.847000
     13 C31          1.8230     0.0000     0.0000 c3         1 45A      -0.278300
     14 OP2         -0.4930     0.0000     1.3960 o          1 45A      -0.820000
     15 O5'         -0.5370     1.3150    -0.7590 os         1 45A      -0.595200
     16 C5'         -1.9220     1.6570    -0.8360 c3         1 45A       0.228400
     17 O2'         -4.7490     4.6080    -3.3930 oh         1 45A      -0.566800
     18 N9          -2.6040     3.1020    -5.1800 na         1 45A      -0.245000
     19 C5          -2.8380     2.9530    -7.3810 ca         1 45A      -0.208200
     20 N7          -2.4970     1.7410    -6.8830 nc         1 45A      -0.607100
     21 C8          -2.3590     1.8250    -5.5920 cd         1 45A       0.449700
     22 O1          -0.5370    -1.3150    -0.7590 o          1 45A      -0.820000
     23 H4'         -1.4690     3.7370    -1.1870 h1         1 45A       0.081700
     24 H3'         -4.1710     2.6640    -1.1110 h1         1 45A       0.053700
     25 H2'         -4.4320     2.5510    -3.4320 h1         1 45A       0.057700
     26 H1          -4.2570     4.6160    -0.2580 ho         1 45A       0.401000
     27 H1'         -2.2080     4.6200    -3.7680 h2         1 45A       0.107700
     28 H2          -3.7310     6.5790    -7.8900 h5         1 45A       0.053100
     29 H327         2.1840     0.8810     0.5170 hc         1 45A       0.043367
     30 H337         2.1840     0.0070    -1.0210 hc         1 45A       0.043367
     31 H317         2.1840    -0.8880     0.5050 hc         1 45A       0.043367
     32 H5'1        -2.3180     1.7890     0.1640 h1         1 45A       0.039700
     33 H5'2        -2.4630     0.8630    -1.3370 h1         1 45A       0.039700
     34 HO2'        -5.6540     4.3480    -3.4410 ho         1 45A       0.397000
     35 H8          -2.0890     1.0030    -4.9400 h5         1 45A       0.106800
     36 H61         -3.2540     2.9940   -10.6830 hn         1 45A       0.445800
     37 H62         -2.8220     1.6590    -9.6650 hn         1 45A       0.445800
     38 N6          -3.0570     2.6250    -9.7730 nv         1 45A      -0.991500
@<TRIPOS>BOND
     1    13     1 1   
     2     6     4 1   
     3    16     3 1   
     4    16    15 1   
     5     4     3 1   
     6     4     5 1   
     7     3     2 1   
     8     1    15 1   
     9     1    14 1   
    10    17     5 1   
    11     5     8 1   
    12     2     8 1   
    13     8    18 1   
    14    21    18 1   
    15    21    20 2   
    16    18     9 1   
    17    20    19 1   
    18     9    10 ar  
    19     9    19 ar  
    20    10    11 ar  
    21    19     7 ar  
    22    11    12 ar  
    23     7    12 ar  
    24     7    38 1   
    25     1    22 1   
    26     3    23 1   
    27     4    24 1   
    28     5    25 1   
    29     6    26 1   
    30     8    27 1   
    31    11    28 1   
    32    13    29 1   
    33    13    30 1   
    34    13    31 1   
    35    16    32 1   
    36    16    33 1   
    37    17    34 1   
    38    21    35 1   
    39    38    36 1   
    40    38    37 1   
@<TRIPOS>SUBSTRUCTURE
     1 45A         1 TEMP              0 ****  ****    0 ROOT
