@<TRIPOS>MOLECULE
45A
   38    40     1     0     0
SMALL
bcc


@<TRIPOS>ATOM
      1 P            0.0000     0.0000     0.0000 p5         1 45A       0.638600
      2 O4'         -1.7000     2.7510    -2.9940 os         1 45A      -0.372600
      3 C4'         -2.0830     2.9580    -1.6240 c3         1 45A       0.138100
      4 C3'         -3.5600     3.3980    -1.6220 c3         1 45A       0.128100
      5 C2'         -3.9380     3.4630    -3.1220 c3         1 45A       0.124100
      6 O3'         -3.6980     4.6840    -1.0150 oh         1 45A      -0.561800
      7 C6          -3.1080     3.4530    -8.6660 ca         1 45A       0.585200
      8 C1'         -2.5510     3.5930    -3.8010 c3         1 45A       0.138800
      9 C4          -2.9110     3.8410    -6.2950 ca         1 45A       0.265800
     10 N3          -3.2320     5.1110    -6.5180 nb         1 45A      -0.660000
     11 C2          -3.4730     5.5370    -7.7410 ca         1 45A       0.669900
     12 N1          -3.4210     4.7390    -8.7920 nb         1 45A      -0.757000
     13 C31          1.8230     0.0000     0.0000 c3         1 45A      -0.011300
     14 OP2         -0.4930     0.0000     1.3960 o          1 45A      -0.664000
     15 O5'         -0.5370     1.3150    -0.7590 os         1 45A      -0.493200
     16 C5'         -1.9220     1.6570    -0.8360 c3         1 45A       0.303400
     17 O2'         -4.7490     4.6080    -3.3930 oh         1 45A      -0.548800
     18 N9          -2.6040     3.1020    -5.1800 na         1 45A       0.221000
     19 C5          -2.8380     2.9530    -7.3810 ca         1 45A      -0.240200
     20 N7          -2.4970     1.7410    -6.8830 nc         1 45A      -0.521100
     21 C8          -2.3590     1.8250    -5.5920 cd         1 45A       0.273700
     22 O1          -0.5370    -1.3150    -0.7590 o          1 45A      -0.664000
     23 H4'         -1.4690     3.7370    -1.1870 h1         1 45A       0.041700
     24 H3'         -4.1710     2.6640    -1.1110 h1         1 45A       0.018700
     25 H2'         -4.4320     2.5510    -3.4320 h1         1 45A       0.020700
     26 H1          -4.2570     4.6160    -0.2580 ho         1 45A       0.384000
     27 H1'         -2.2080     4.6200    -3.7680 h2         1 45A       0.064700
     28 H2          -3.7310     6.5790    -7.8900 h5         1 45A      -0.011900
     29 H327         2.1840     0.8810     0.5170 hc         1 45A       0.006700
     30 H337         2.1840     0.0070    -1.0210 hc         1 45A       0.006700
     31 H317         2.1840    -0.8880     0.5050 hc         1 45A       0.006700
     32 H5'1        -2.3180     1.7890     0.1640 h1         1 45A      -0.009300
     33 H5'2        -2.4630     0.8630    -1.3370 h1         1 45A      -0.009300
     34 HO2'        -5.6540     4.3480    -3.4410 ho         1 45A       0.381000
     35 H8          -2.0890     1.0030    -4.9400 h5         1 45A       0.058800
     36 H61         -3.2540     2.9940   -10.6830 hn         1 45A       0.272800
     37 H62         -2.8220     1.6590    -9.6650 hn         1 45A       0.272800
     38 N6          -3.0570     2.6250    -9.7730 nv         1 45A      -0.497500
@<TRIPOS>BOND
     1     1    13 1   
     2     1    14 1   
     3     1    15 1   
     4     1    22 1   
     5     2     3 1   
     6     2     8 1   
     7     3     4 1   
     8     3    16 1   
     9     3    23 1   
    10     4     5 1   
    11     4     6 1   
    12     4    24 1   
    13     5     8 1   
    14     5    17 1   
    15     5    25 1   
    16     6    26 1   
    17     7    12 ar  
    18     7    19 ar  
    19     7    38 1   
    20     8    18 1   
    21     8    27 1   
    22     9    10 ar  
    23     9    18 1   
    24     9    19 ar  
    25    10    11 ar  
    26    11    12 ar  
    27    11    28 1   
    28    13    29 1   
    29    13    30 1   
    30    13    31 1   
    31    15    16 1   
    32    16    32 1   
    33    16    33 1   
    34    17    34 1   
    35    18    21 1   
    36    19    20 1   
    37    20    21 2   
    38    21    35 1   
    39    36    38 1   
    40    37    38 1   
@<TRIPOS>SUBSTRUCTURE
     1 45A         1 TEMP              0 ****  ****    0 ROOT
