@<TRIPOS>MOLECULE
molecule
   72    76     1     0     0
SMALL
bcc


@<TRIPOS>ATOM
      1 Cl1          0.0000     0.0000     0.0000 cl         1 45B      -0.118400
      2 C13          1.7370     0.0000     0.0000 ca         1 45B      -0.007600
      3 C12          2.4280     0.0000     1.1960 ca         1 45B      -0.105000
      4 C11          3.8120    -0.0000     1.1960 ca         1 45B      -0.140000
      5 C10          4.5060     0.0000     0.0010 ca         1 45B      -0.110000
      6 C9           3.8210     0.0010    -1.1990 ca         1 45B      -0.126000
      7 C8           2.4330    -0.0050    -1.2030 ca         1 45B       0.066600
      8 N1           1.7360    -0.0110    -2.4160 ns         1 45B      -0.471100
      9 C7           2.2680     0.5850    -3.5020 c          1 45B       0.682700
     10 O2           3.3900     1.0500    -3.4520 o          1 45B      -0.601100
     11 C6           1.4890     0.6710    -4.7520 ca         1 45B      -0.173600
     12 C4           2.0390     1.2880    -5.8790 ca         1 45B      -0.065500
     13 C3           1.3110     1.3680    -7.0440 ca         1 45B      -0.157500
     14 C14          0.2010     0.1310    -4.8140 ca         1 45B      -0.065500
     15 C15         -0.5230     0.2130    -5.9820 ca         1 45B      -0.157500
     16 C2           0.0260     0.8340    -7.1000 ca         1 45B       0.181600
     17 N5          -0.7090     0.9160    -8.2790 nu         1 45B      -0.760300
     18 C1          -2.0870     1.0780    -8.2290 ca         1 45B       0.734200
     19 N6          -2.7080     1.2100    -7.0620 nb         1 45B      -0.837000
     20 C16         -2.8400     1.1090    -9.4060 ca         1 45B      -0.233700
     21 F4          -2.2450     0.9820   -10.6120 f          1 45B      -0.139900
     22 C17         -4.2100     1.2730    -9.3060 ca         1 45B       0.497200
     23 N4          -4.7630     1.3930    -8.1080 nb         1 45B      -0.798000
     24 C5          -4.0220     1.3650    -7.0100 ca         1 45B       0.963900
     25 N8          -4.6380     1.5000    -5.7760 nu         1 45B      -0.749300
     26 C           -6.0050     1.7820    -5.7040 ca         1 45B       0.159600
     27 C30         -6.7740     1.2440    -4.6800 ca         1 45B      -0.138000
     28 C29         -8.1250     1.5250    -4.6120 ca         1 45B      -0.093500
     29 C20         -8.7120     2.3420    -5.5620 ca         1 45B      -0.085300
     30 C19         -7.9480     2.8790    -6.5830 ca         1 45B      -0.093500
     31 C18         -6.5960     2.6070    -6.6530 ca         1 45B      -0.138000
     32 C21        -10.1850     2.6460    -5.4860 c3         1 45B      -0.106100
     33 C22        -10.4000     3.8840    -4.6540 c          1 45B       0.660100
     34 O1          -9.4500     4.4630    -4.1710 o          1 45B      -0.591100
     35 N          -11.6480     4.3490    -4.4470 n          1 45B      -0.497800
     36 C28        -11.8730     5.5560    -3.6380 c3         1 45B       0.085500
     37 C27        -12.6760     6.5610    -4.4720 c3         1 45B       0.086500
     38 N2         -13.8370     5.8710    -5.0500 n          1 45B      -0.496800
     39 C24        -13.6120     4.6650    -5.8590 c3         1 45B       0.086500
     40 C23        -12.8090     3.6620    -5.0300 c3         1 45B       0.085500
     41 C25        -15.0850     6.3350    -4.8440 c          1 45B       0.661100
     42 O3         -15.2520     7.3820    -4.2540 o          1 45B      -0.605100
     43 C26        -16.2730     5.5540    -5.3440 c3         1 45B      -0.171100
     44 H12          1.8870    -0.0000     2.1340 ha         1 45B       0.144000
     45 H11          4.3520    -0.0010     2.1340 ha         1 45B       0.136000
     46 H10          5.5890     0.0020     0.0040 ha         1 45B       0.138000
     47 H9           4.3660    -0.0010    -2.1350 ha         1 45B       0.179000
     48 HN1          0.8600    -0.4900    -2.4880 hn         1 45B       0.334500
     49 H4           3.0390     1.7040    -5.8360 ha         1 45B       0.144000
     50 H3           1.7360     1.8480    -7.9170 ha         1 45B       0.150500
     51 H14         -0.2270    -0.3520    -3.9440 ha         1 45B       0.144000
     52 H15         -1.5220    -0.2030    -6.0290 ha         1 45B       0.150500
     53 HN5         -0.2460     0.8410    -9.1640 hn         1 45B       0.472800
     54 H17         -4.8250     1.2990   -10.1980 h4         1 45B       0.044100
     55 HN8         -4.0980     1.4230    -4.9360 hn         1 45B       0.468800
     56 H30         -6.3160     0.6050    -3.9360 ha         1 45B       0.143000
     57 H29         -8.7260     1.1060    -3.8140 ha         1 45B       0.131000
     58 H19         -8.4100     3.5200    -7.3250 ha         1 45B       0.131000
     59 H18         -5.9990     3.0280    -7.4530 ha         1 45B       0.143000
     60 H21        -10.5720     2.8100    -6.4840 hc         1 45B       0.064200
     61 H21A       -10.7030     1.8100    -5.0300 hc         1 45B       0.064200
     62 H28        -10.9190     5.9910    -3.3640 h1         1 45B       0.063700
     63 H28A       -12.4300     5.2960    -2.7470 h1         1 45B       0.063700
     64 H27        -13.0140     7.3700    -3.8360 h1         1 45B       0.064450
     65 H27A       -12.0530     6.9520    -5.2670 h1         1 45B       0.064450
     66 H24        -14.5650     4.2280    -6.1320 h1         1 45B       0.064450
     67 H24A       -13.0560     4.9250    -6.7520 h1         1 45B       0.064450
     68 H23        -12.4690     2.8550    -5.6680 h1         1 45B       0.063700
     69 H23A       -13.4320     3.2670    -4.2370 h1         1 45B       0.063700
     70 H26        -16.2940     4.5830    -4.8650 hc         1 45B       0.061033
     71 H26A       -17.1830     6.0930    -5.1090 hc         1 45B       0.061033
     72 H26B       -16.1950     5.4260    -6.4170 hc         1 45B       0.061033
@<TRIPOS>BOND
     1     1     2 1
     2     2     3 ar
     3     2     7 ar
     4     3     4 ar
     5     4     5 ar
     6     5     6 ar
     7     6     7 ar
     8     7     8 1
     9     8     9 1
    10     9    10 2
    11     9    11 1
    12    11    12 ar
    13    11    14 ar
    14    12    13 ar
    15    13    16 ar
    16    14    15 ar
    17    15    16 ar
    18    16    17 1
    19    17    18 1
    20    18    19 ar
    21    18    20 ar
    22    19    24 ar
    23    20    21 1
    24    20    22 ar
    25    22    23 ar
    26    23    24 ar
    27    24    25 1
    28    25    26 1
    29    26    27 ar
    30    26    31 ar
    31    27    28 ar
    32    28    29 ar
    33    29    30 ar
    34    29    32 1
    35    30    31 ar
    36    32    33 1
    37    33    34 2
    38    33    35 1
    39    35    36 1
    40    35    40 1
    41    36    37 1
    42    37    38 1
    43    38    39 1
    44    38    41 1
    45    39    40 1
    46    41    42 2
    47    41    43 1
    48     3    44 1
    49     4    45 1
    50     5    46 1
    51     6    47 1
    52     8    48 1
    53    12    49 1
    54    13    50 1
    55    14    51 1
    56    15    52 1
    57    17    53 1
    58    22    54 1
    59    25    55 1
    60    27    56 1
    61    28    57 1
    62    30    58 1
    63    31    59 1
    64    32    60 1
    65    32    61 1
    66    36    62 1
    67    36    63 1
    68    37    64 1
    69    37    65 1
    70    39    66 1
    71    39    67 1
    72    40    68 1
    73    40    69 1
    74    43    70 1
    75    43    71 1
    76    43    72 1
@<TRIPOS>SUBSTRUCTURE
     1 45B         1 TEMP              0 ****  ****    0 ROOT
