@<TRIPOS>MOLECULE
molecule
   14    14     1     0     0
SMALL
bcc


@<TRIPOS>ATOM
      1 C1           0.0000     0.0000     0.0000 ca         1 45C       0.102100
      2 C2           1.3920     0.0000     0.0000 ca         1 45C       0.102100
      3 C3           2.0820     0.0000     1.2000 ca         1 45C      -0.142500
      4 C4           1.3880    -0.0010     2.3970 ca         1 45C       0.033400
      5 C5           0.0040    -0.0010     2.3970 ca         1 45C       0.033400
      6 C6          -0.6900    -0.0010     1.2000 ca         1 45C      -0.142500
      7 O7          -0.6810     0.0050    -1.1780 oh         1 45C      -0.503100
      8 O8           2.0730     0.0010    -1.1780 oh         1 45C      -0.503100
      9 Cl9          2.2550    -0.0020     3.9020 cl         1 45C      -0.079400
     10 Cl10        -0.8630    -0.0030     3.9020 cl         1 45C      -0.079400
     11 H3           3.1650    -0.0000     1.2020 ha         1 45C       0.162000
     12 H6          -1.7730    -0.0010     1.2020 ha         1 45C       0.162000
     13 HO7         -1.0740    -0.8410    -1.3170 ho         1 45C       0.427000
     14 HO8          2.4660     0.8470    -1.3130 ho         1 45C       0.427000
@<TRIPOS>BOND
     1     7     1 1
     2     1     6 ar
     3     1     2 ar
     4     8     2 1
     5     2     3 ar
     6     3     4 ar
     7     3    11 1
     8     5     4 ar
     9     4     9 1
    10     6     5 ar
    11     5    10 1
    12     6    12 1
    13     7    13 1
    14     8    14 1
@<TRIPOS>SUBSTRUCTURE
     1 45C         1 TEMP              0 ****  ****    0 ROOT
