@<TRIPOS>MOLECULE
45C
   14    14     1     0     0
SMALL
bcc


@<TRIPOS>ATOM
      1 C1         -0.0130   -0.1440   -0.0290 ca        1 45C      0.113100
      2 C2          1.4050   -0.1430   -0.0290 ca        1 45C      0.113100
      3 C3          2.0990   -0.1110    1.1810 ca        1 45C     -0.179000
      4 C4          1.3950   -0.0810    2.3920 ca        1 45C      0.021400
      5 C5         -0.0040   -0.0820    2.3910 ca        1 45C      0.021400
      6 C6         -0.7070   -0.1140    1.1800 ca        1 45C     -0.179000
      7 O7         -0.6350   -0.1760   -1.2530 oh        1 45C     -0.468100
      8 O8          2.0280   -0.1740   -1.2520 oh        1 45C     -0.468100
      9 CL9         2.2750   -0.0430    3.8410 cl        1 45C     -0.065400
     10 CL10       -0.8840   -0.0450    3.8400 cl        1 45C     -0.065400
     11 H3          3.2000   -0.1100    1.1830 ha        1 45C      0.156000
     12 H6         -1.8080   -0.1140    1.1820 ha        1 45C      0.156000
     13 HO7        -1.5920   -0.1730   -1.0980 ho        1 45C      0.420000
     14 HO8         2.9850   -0.1690   -1.0970 ho        1 45C      0.420000
@<TRIPOS>BOND
     1    1    2 ar  
     2    1    6 ar  
     3    1    7 1   
     4    2    3 ar  
     5    2    8 1   
     6    3    4 ar  
     7    3   11 1   
     8    4    5 ar  
     9    4    9 1   
    10    5    6 ar  
    11    5   10 1   
    12    6   12 1   
    13    7   13 1   
    14    8   14 1   
@<TRIPOS>SUBSTRUCTURE
     1 45C         1 TEMP              0 ****  ****    0 ROOT
