@<TRIPOS>MOLECULE
molecule
   94    95     1     0     0
SMALL
bcc


@<TRIPOS>ATOM
      1 O01          0.0000     0.0000     0.0000 o          1 45D      -0.539100
      2 O02          8.6570   -19.3700   -16.5690 o          1 45D      -0.539100
      3 C03          4.0930     0.0000     0.0000 c3         1 45D      -0.034300
      4 C04          8.6230   -20.7890   -12.7300 c3         1 45D      -0.034300
      5 C05          3.3120     0.0000     1.3160 c3         1 45D      -0.065400
      6 C06          9.8650   -20.9500   -13.6110 c3         1 45D      -0.065400
      7 C07          3.2770    -0.6840    -1.0660 ce         1 45D      -0.004200
      8 C08          7.8680   -19.5560   -13.1510 cf         1 45D      -0.004200
      9 C09          1.9670     0.6990     1.0960 c3         1 45D      -0.180400
     10 C10          9.4270   -21.0260   -15.0760 c3         1 45D      -0.180400
     11 C11          5.4140    -0.7480     0.1900 c3         1 45D      -0.080350
     12 C12          4.3800     1.4420    -0.4230 c3         1 45D      -0.080350
     13 C14          9.0500   -20.6510   -11.2670 c3         1 45D      -0.080350
     14 C15          1.9020    -0.6570    -1.0270 cf         1 45D      -0.215400
     15 C16          7.9070   -19.1150   -14.4540 ce         1 45D      -0.215400
     16 C17          1.2160    -0.0030    -0.0030 c          1 45D       0.576300
     17 C18          8.6450   -19.7880   -15.4270 c          1 45D       0.576300
     18 C19          3.9260    -1.3530    -2.1080 ce         1 45D      -0.152000
     19 C20          7.1170   -18.8500   -12.2060 cf         1 45D      -0.152000
     20 C21          1.1200    -1.3500    -2.1140 c3         1 45D      -0.042900
     21 C22          7.1340   -17.8800   -14.8380 c3         1 45D      -0.042900
     22 C23          3.6690    -2.6900    -2.3350 cf         1 45D      -0.099000
     23 C24          7.3740   -17.5140   -11.9790 ce         1 45D      -0.099000
     24 C25          4.3560    -3.3730    -3.3420 cf         1 45D      -0.095700
     25 C26          6.6860   -16.8300   -10.9720 ce         1 45D      -0.095700
     26 C27          5.3800    -2.6500    -4.1790 c3         1 45D      -0.057900
     27 C28          5.6630   -17.5540   -10.1350 c3         1 45D      -0.057900
     28 C29          4.1000    -4.7100    -3.5690 ce         1 45D      -0.118000
     29 C30          6.9440   -15.4930   -10.7450 cf         1 45D      -0.118000
     30 C31          4.7880    -5.3930    -4.5760 ce         1 45D      -0.140500
     31 C32          6.2550   -14.8100    -9.7390 cf         1 45D      -0.140500
     32 C33          4.5310    -6.7300    -4.8030 cf         1 45D      -0.115000
     33 C34          6.5130   -13.4730    -9.5110 ce         1 45D      -0.115000
     34 C35          5.2190    -7.4130    -5.8100 cf         1 45D      -0.085200
     35 C36          5.8230   -12.7900    -8.5050 ce         1 45D      -0.085200
     36 C37          4.9610    -8.7500    -6.0370 ce         1 45D      -0.127000
     37 C38          6.0810   -11.4530    -8.2770 cf         1 45D      -0.127000
     38 C39          6.2420    -6.6890    -6.6470 c3         1 45D      -0.058900
     39 C40          4.8010   -13.5130    -7.6670 c3         1 45D      -0.058900
     40 C41          5.6500    -9.4320    -7.0440 ce         1 45D      -0.132000
     41 C42          5.3930   -10.7700    -7.2710 cf         1 45D      -0.132000
     42 H052         3.1410    -1.0210     1.6350 hc         1 45D       0.050700
     43 H051         3.8770     0.5320     2.0720 hc         1 45D       0.050700
     44 H062        10.3840   -21.8610   -13.3410 hc         1 45D       0.050700
     45 H061        10.5200   -20.0980   -13.4730 hc         1 45D       0.050700
     46 H092         2.1390     1.7310     0.8140 hc         1 45D       0.071450
     47 H091         1.3870     0.6610     2.0100 hc         1 45D       0.071450
     48 H102        10.3030   -21.0910   -15.7110 hc         1 45D       0.071450
     49 H101         8.8040   -21.9000   -15.2210 hc         1 45D       0.071450
     50 H113         5.2120    -1.7960     0.3770 hc         1 45D       0.039867
     51 H111         5.9490    -0.3270     1.0320 hc         1 45D       0.039867
     52 H112         6.0160    -0.6510    -0.7060 hc         1 45D       0.039867
     53 H122         5.2290     1.4590    -1.0950 hc         1 45D       0.039867
     54 H123         4.6010     2.0390     0.4530 hc         1 45D       0.039867
     55 H121         3.5120     1.8500    -0.9280 hc         1 45D       0.039867
     56 H131         7.1160   -21.9080   -13.7760 hc         1 45D       0.039867
     57 H132         8.3370   -22.9050   -12.9730 hc         1 45D       0.039867
     58 H133         7.0810   -22.1050   -12.0180 hc         1 45D       0.039867
     59 H141         9.5820   -19.7160   -11.1320 hc         1 45D       0.039867
     60 H143         8.1730   -20.6620   -10.6310 hc         1 45D       0.039867
     61 H142         9.6990   -21.4770   -11.0010 hc         1 45D       0.039867
     62 H191         4.6620    -0.8330    -2.7100 ha         1 45D       0.144000
     63 H201         6.3800   -19.3690   -11.6040 ha         1 45D       0.144000
     64 H212         1.0070    -2.3980    -1.8650 hc         1 45D       0.049200
     65 H213         0.1420    -0.8920    -2.2040 hc         1 45D       0.049200
     66 H211         1.6500    -1.2570    -3.0550 hc         1 45D       0.049200
     67 H223         7.7330   -17.0000   -14.6340 hc         1 45D       0.049200
     68 H222         6.2170   -17.8340   -14.2620 hc         1 45D       0.049200
     69 H221         6.8950   -17.9170   -15.8940 hc         1 45D       0.049200
     70 H231         2.9640    -3.2200    -1.7060 ha         1 45D       0.138000
     71 H241         8.1580   -17.0120   -12.5330 ha         1 45D       0.138000
     72 H273         5.2290    -1.5810    -4.0910 hc         1 45D       0.045867
     73 H272         5.2730    -2.9460    -5.2160 hc         1 45D       0.045867
     74 H271         6.3750    -2.9030    -3.8320 hc         1 45D       0.045867
     75 H281         5.3260   -18.4390   -10.6610 hc         1 45D       0.045867
     76 H282         4.8190   -16.9000    -9.9500 hc         1 45D       0.045867
     77 H283         6.1080   -17.8430    -9.1910 hc         1 45D       0.045867
     78 H291         3.3650    -5.2300    -2.9670 ha         1 45D       0.131000
     79 H301         7.6790   -14.9740   -11.3470 ha         1 45D       0.131000
     80 H311         5.5230    -4.8730    -5.1790 ha         1 45D       0.136000
     81 H321         5.5190   -15.3300    -9.1370 ha         1 45D       0.136000
     82 H331         3.7960    -7.2490    -4.2000 ha         1 45D       0.131000
     83 H341         7.2480   -12.9530   -10.1130 ha         1 45D       0.131000
     84 H371         4.2260    -9.2700    -5.4350 ha         1 45D       0.130000
     85 H381         6.8170   -10.9330    -8.8790 ha         1 45D       0.130000
     86 H393         6.4090    -7.2360    -7.5670 hc         1 45D       0.045867
     87 H392         5.8810    -5.6950    -6.8780 hc         1 45D       0.045867
     88 H391         7.1730    -6.6170    -6.0960 hc         1 45D       0.045867
     89 H401         4.6580   -12.9820    -6.7340 hc         1 45D       0.045867
     90 H402         3.8610   -13.5580    -8.2040 hc         1 45D       0.045867
     91 H403         5.1480   -14.5180    -7.4620 hc         1 45D       0.045867
     92 H411         6.3860    -8.9120    -7.6450 ha         1 45D       0.133000
     93 H421         4.6570   -11.2890    -6.6690 ha         1 45D       0.133000
     94 C13          7.7240   -22.0160   -12.8860 c3         1 45D      -0.080350
@<TRIPOS>BOND
     1     1    16 2   
     2    16     9 1   
     3    16    14 1   
     4    20    14 1   
     5     9     5 1   
     6    14     7 2   
     7     5     3 1   
     8     7     3 1   
     9     7    18 1   
    10     3    12 1   
    11     3    11 1   
    12    18    22 2   
    13    22    24 1   
    14    24    26 1   
    15    24    28 2   
    16    28    30 1   
    17    30    32 2   
    18    32    34 1   
    19    34    36 2   
    20    34    38 1   
    21    36    40 1   
    22    40    41 2   
    23    41    37 1   
    24    39    35 1   
    25    37    35 2   
    26    35    33 1   
    27    33    31 2   
    28    31    29 1   
    29    27    25 1   
    30    29    25 2   
    31    25    23 1   
    32    23    19 2   
    33    19     8 1   
    34    13     4 1   
    35     8     4 1   
    36     8    15 2   
    37    21    15 1   
    38    94     4 1   
    39     4     6 1   
    40    15    17 1   
    41     6    10 1   
    42    17    10 1   
    43    17     2 2   
    44     5    42 1   
    45     5    43 1   
    46     6    44 1   
    47     6    45 1   
    48     9    46 1   
    49     9    47 1   
    50    10    48 1   
    51    10    49 1   
    52    11    50 1   
    53    11    51 1   
    54    11    52 1   
    55    12    53 1   
    56    12    54 1   
    57    12    55 1   
    58    94    56 1   
    59    94    57 1   
    60    94    58 1   
    61    13    59 1   
    62    13    60 1   
    63    13    61 1   
    64    18    62 1   
    65    19    63 1   
    66    20    64 1   
    67    20    65 1   
    68    20    66 1   
    69    21    67 1   
    70    21    68 1   
    71    21    69 1   
    72    22    70 1   
    73    23    71 1   
    74    26    72 1   
    75    26    73 1   
    76    26    74 1   
    77    27    75 1   
    78    27    76 1   
    79    27    77 1   
    80    28    78 1   
    81    29    79 1   
    82    30    80 1   
    83    31    81 1   
    84    32    82 1   
    85    33    83 1   
    86    36    84 1   
    87    37    85 1   
    88    38    86 1   
    89    38    87 1   
    90    38    88 1   
    91    39    89 1   
    92    39    90 1   
    93    39    91 1   
    94    40    92 1   
    95    41    93 1   
@<TRIPOS>SUBSTRUCTURE
     1 45D         1 TEMP              0 ****  ****    0 ROOT
